<flows>
<flow id="flow0" from="96033765_1" to="96033961_2" begin="0" end="300" no="40" />
<flow id="flow1" from="96033902_1" to="96353027_1" begin="0" end="300" no="40" />
<flow id="flow2" from="96033779_1" to="96033831_2" begin="0" end="300" no="40" />
</flows>
