<edges>
<edge id="96033861_1" fromnode="node0" tonode="node1" priority="70" nolanes="2" speed="15"/>
<edge id="96033861_2" fromnode="node2" tonode="node3" priority="70" nolanes="2" speed="15"/>
<edge id="96033859_1" fromnode="node2" tonode="node4" priority="70" nolanes="2" speed="15"/>
<edge id="96033859_2" fromnode="node5" tonode="node1" priority="70" nolanes="2" speed="15"/>
<edge id="96033850_1" fromnode="node6" tonode="node4" priority="70" nolanes="2" speed="15"/>
<edge id="96033850_2" fromnode="node5" tonode="node7" priority="70" nolanes="2" speed="15"/>
<edge id="96033860_1" fromnode="node0" tonode="node7" priority="70" nolanes="2" speed="15"/>
<edge id="96033860_2" fromnode="node6" tonode="node3" priority="70" nolanes="2" speed="15"/>
<edge id="96033955_1" fromnode="node8" tonode="node9" priority="70" nolanes="2" speed="15"/>
<edge id="96033955_2" fromnode="node10" tonode="node11" priority="70" nolanes="2" speed="15"/>
<edge id="96140246_1" fromnode="node10" tonode="node12" priority="70" nolanes="2" speed="15"/>
<edge id="96140246_2" fromnode="node13" tonode="node9" priority="70" nolanes="2" speed="15"/>
<edge id="96140245_1" fromnode="node8" tonode="node12" priority="70" nolanes="2" speed="15"/>
<edge id="96140245_2" fromnode="node13" tonode="node11" priority="70" nolanes="2" speed="15"/>
<edge id="96140247_1" fromnode="node13" tonode="node14" priority="70" nolanes="2" speed="15"/>
<edge id="96140247_2" fromnode="node15" tonode="node12" priority="70" nolanes="2" speed="15"/>
<edge id="96033943_1" fromnode="node15" tonode="node14" priority="70" nolanes="2" speed="15"/>
<edge id="96033943_2" fromnode="node16" tonode="node14" priority="70" nolanes="2" speed="15"/>
<edge id="96033958_1" fromnode="node10" tonode="node17" priority="70" nolanes="2" speed="15"/>
<edge id="96033958_2" fromnode="node18" tonode="node9" priority="70" nolanes="2" speed="15"/>
<edge id="96033960_1" fromnode="node18" tonode="node14" priority="70" nolanes="2" speed="15"/>
<edge id="96033960_2" fromnode="node16" tonode="node17" priority="70" nolanes="2" speed="15"/>
<edge id="96033906_1" fromnode="node16" tonode="node19" priority="70" nolanes="2" speed="15"/>
<edge id="96033906_2" fromnode="node20" tonode="node14" priority="70" nolanes="2" speed="15"/>
<edge id="96033905_1" fromnode="node15" tonode="node19" priority="70" nolanes="2" speed="15"/>
<edge id="96033905_2" fromnode="node20" tonode="node14" priority="70" nolanes="2" speed="15"/>
<edge id="96033862_1" fromnode="node2" tonode="node21" priority="70" nolanes="2" speed="15"/>
<edge id="96033862_2" fromnode="node22" tonode="node1" priority="70" nolanes="2" speed="15"/>
<edge id="96033953_1" fromnode="node22" tonode="node11" priority="70" nolanes="2" speed="15"/>
<edge id="96033953_2" fromnode="node8" tonode="node21" priority="70" nolanes="2" speed="15"/>
<edge id="96033947_1" fromnode="node5" tonode="node11" priority="70" nolanes="2" speed="15"/>
<edge id="96033947_2" fromnode="node8" tonode="node4" priority="70" nolanes="2" speed="15"/>
<edge id="96033856_1" fromnode="node23" tonode="node3" priority="70" nolanes="2" speed="15"/>
<edge id="96033856_2" fromnode="node24" tonode="node3" priority="70" nolanes="2" speed="15"/>
<edge id="96033857_1" fromnode="node24" tonode="node25" priority="70" nolanes="2" speed="15"/>
<edge id="96033857_2" fromnode="node26" tonode="node3" priority="70" nolanes="2" speed="15"/>
<edge id="96033844_1" fromnode="node27" tonode="node25" priority="70" nolanes="2" speed="15"/>
<edge id="96033844_2" fromnode="node26" tonode="node28" priority="70" nolanes="2" speed="15"/>
<edge id="96033847_1" fromnode="node29" tonode="node28" priority="70" nolanes="2" speed="15"/>
<edge id="96033847_2" fromnode="node27" tonode="node30" priority="70" nolanes="2" speed="15"/>
<edge id="96033848_1" fromnode="node23" tonode="node30" priority="70" nolanes="2" speed="15"/>
<edge id="96033848_2" fromnode="node29" tonode="node3" priority="70" nolanes="2" speed="15"/>
<edge id="96033843_1" fromnode="node31" tonode="node28" priority="70" nolanes="2" speed="15"/>
<edge id="96033843_2" fromnode="node27" tonode="node32" priority="70" nolanes="2" speed="15"/>
<edge id="96033833_1" fromnode="node33" tonode="node32" priority="70" nolanes="2" speed="15"/>
<edge id="96033833_2" fromnode="node31" tonode="node32" priority="70" nolanes="2" speed="15"/>
<edge id="96033840_1" fromnode="node34" tonode="node32" priority="70" nolanes="2" speed="15"/>
<edge id="96033840_2" fromnode="node33" tonode="node30" priority="70" nolanes="2" speed="15"/>
<edge id="96033841_1" fromnode="node34" tonode="node30" priority="70" nolanes="2" speed="15"/>
<edge id="96033841_2" fromnode="node29" tonode="node30" priority="70" nolanes="2" speed="15"/>
<edge id="96033858_1" fromnode="node24" tonode="node3" priority="70" nolanes="2" speed="15"/>
<edge id="96033858_2" fromnode="node0" tonode="node3" priority="70" nolanes="2" speed="15"/>
<edge id="96033846_1" fromnode="node26" tonode="node7" priority="70" nolanes="2" speed="15"/>
<edge id="96033846_2" fromnode="node6" tonode="node25" priority="70" nolanes="2" speed="15"/>
<edge id="96033961_1" fromnode="node18" tonode="node35" priority="70" nolanes="2" speed="15"/>
<edge id="96033961_2" fromnode="node36" tonode="node17" priority="70" nolanes="2" speed="15"/>
<edge id="96033970_1" fromnode="node36" tonode="node37" priority="70" nolanes="2" speed="15"/>
<edge id="96033970_2" fromnode="node38" tonode="node35" priority="70" nolanes="2" speed="15"/>
<edge id="96033944_1" fromnode="node16" tonode="node37" priority="70" nolanes="2" speed="15"/>
<edge id="96033944_2" fromnode="node38" tonode="node14" priority="70" nolanes="2" speed="15"/>
<edge id="96033909_1" fromnode="node38" tonode="node39" priority="70" nolanes="2" speed="15"/>
<edge id="96033909_2" fromnode="node40" tonode="node37" priority="70" nolanes="2" speed="15"/>
<edge id="96033903_1" fromnode="node41" tonode="node39" priority="70" nolanes="2" speed="15"/>
<edge id="96033903_2" fromnode="node40" tonode="node42" priority="70" nolanes="2" speed="15"/>
<edge id="96033904_1" fromnode="node20" tonode="node42" priority="70" nolanes="2" speed="15"/>
<edge id="96033904_2" fromnode="node41" tonode="node19" priority="70" nolanes="2" speed="15"/>
<edge id="96033975_2" fromnode="node43" tonode="node44" priority="75" nolanes="2" speed="30"/>
<edge id="96033974_1" fromnode="node43" tonode="node1" priority="70" nolanes="2" speed="15"/>
<edge id="96033976_2" fromnode="node43" tonode="node45" priority="70" nolanes="2" speed="20"/>
<edge id="96033971_1" fromnode="node36" tonode="node35" priority="70" nolanes="2" speed="15"/>
<edge id="96033971_2" fromnode="node43" tonode="node35" priority="70" nolanes="2" speed="15"/>
<edge id="96124570_2" fromnode="node36" tonode="node46" priority="70" nolanes="2" speed="15"/>
<edge id="96033966_2" fromnode="node47" tonode="node46" priority="70" nolanes="2" speed="15"/>
<edge id="96033964_1" fromnode="node48" tonode="node49" priority="70" nolanes="2" speed="15"/>
<edge id="96033964_2" fromnode="node47" tonode="node50" priority="70" nolanes="2" speed="15"/>
<edge id="96033965_2" fromnode="node48" tonode="node46" priority="70" nolanes="2" speed="15"/>
<edge id="96124568_1" fromnode="node51" tonode="node9" priority="70" nolanes="2" speed="15"/>
<edge id="96124568_2" fromnode="node10" tonode="node21" priority="70" nolanes="2" speed="15"/>
<edge id="96033959_1" fromnode="node47" tonode="node21" priority="70" nolanes="2" speed="15"/>
<edge id="96033959_2" fromnode="node51" tonode="node49" priority="70" nolanes="2" speed="15"/>
<edge id="96034100_1" fromnode="node52" tonode="node53" priority="70" nolanes="2" speed="15"/>
<edge id="96034100_2" fromnode="node54" tonode="node53" priority="70" nolanes="2" speed="15"/>
<edge id="96033962_1" fromnode="node52" tonode="node53" priority="70" nolanes="2" speed="15"/>
<edge id="96033962_2" fromnode="node54" tonode="node53" priority="70" nolanes="2" speed="15"/>
<edge id="96033867_1" fromnode="node55" tonode="node56" priority="70" nolanes="2" speed="15"/>
<edge id="96033867_2" fromnode="node57" tonode="node44" priority="70" nolanes="2" speed="15"/>
<edge id="96033866_1" fromnode="node55" tonode="node56" priority="70" nolanes="2" speed="15"/>
<edge id="96033866_2" fromnode="node57" tonode="node44" priority="70" nolanes="2" speed="15"/>
<edge id="96034037_1" fromnode="node58" tonode="node44" priority="70" nolanes="2" speed="15"/>
<edge id="96034037_2" fromnode="node59" tonode="node60" priority="70" nolanes="2" speed="15"/>
<edge id="96033863_1" fromnode="node58" tonode="node44" priority="70" nolanes="2" speed="15"/>
<edge id="96033863_2" fromnode="node59" tonode="node60" priority="70" nolanes="2" speed="15"/>
<edge id="96033956_1" fromnode="node22" tonode="node21" priority="70" nolanes="2" speed="15"/>
<edge id="96033956_2" fromnode="node61" tonode="node21" priority="70" nolanes="2" speed="15"/>
<edge id="96033842_1" fromnode="node62" tonode="node30" priority="70" nolanes="2" speed="15"/>
<edge id="96033842_2" fromnode="node34" tonode="node63" priority="70" nolanes="2" speed="15"/>
<edge id="96033854_1" fromnode="node62" tonode="node60" priority="70" nolanes="2" speed="15"/>
<edge id="96033854_2" fromnode="node58" tonode="node63" priority="70" nolanes="2" speed="15"/>
<edge id="96033864_1" fromnode="node59" tonode="node44" priority="70" nolanes="2" speed="15"/>
<edge id="96033864_2" fromnode="node55" tonode="node44" priority="70" nolanes="2" speed="15"/>
<edge id="96033865_1" fromnode="node57" tonode="node53" priority="70" nolanes="2" speed="15"/>
<edge id="96033865_2" fromnode="node52" tonode="node56" priority="70" nolanes="2" speed="15"/>
<edge id="96033963_1" fromnode="node54" tonode="node50" priority="70" nolanes="2" speed="15"/>
<edge id="96033963_2" fromnode="node48" tonode="node53" priority="70" nolanes="2" speed="15"/>
<edge id="96033839_1" fromnode="node64" tonode="node30" priority="70" nolanes="2" speed="15"/>
<edge id="96033839_2" fromnode="node34" tonode="node30" priority="70" nolanes="2" speed="15"/>
<edge id="96033832_1" fromnode="node33" tonode="node65" priority="70" nolanes="2" speed="15"/>
<edge id="96033832_2" fromnode="node66" tonode="node32" priority="70" nolanes="2" speed="15"/>
<edge id="96033785_1" fromnode="node67" tonode="node65" priority="70" nolanes="2" speed="15"/>
<edge id="96033785_2" fromnode="node66" tonode="node68" priority="70" nolanes="2" speed="15"/>
<edge id="96033838_1" fromnode="node64" tonode="node68" priority="70" nolanes="2" speed="15"/>
<edge id="96033838_2" fromnode="node67" tonode="node30" priority="70" nolanes="2" speed="15"/>
<edge id="96033796_1" fromnode="node31" tonode="node69" priority="70" nolanes="2" speed="15"/>
<edge id="96033796_2" fromnode="node70" tonode="node32" priority="70" nolanes="2" speed="15"/>
<edge id="96033790_1" fromnode="node70" tonode="node68" priority="70" nolanes="2" speed="15"/>
<edge id="96033790_2" fromnode="node71" tonode="node69" priority="70" nolanes="2" speed="15"/>
<edge id="96033788_1" fromnode="node66" tonode="node68" priority="70" nolanes="2" speed="15"/>
<edge id="96033788_2" fromnode="node71" tonode="node65" priority="70" nolanes="2" speed="15"/>
<edge id="96033946_1" fromnode="node5" tonode="node72" priority="70" nolanes="2" speed="15"/>
<edge id="96033946_2" fromnode="node73" tonode="node4" priority="70" nolanes="2" speed="15"/>
<edge id="96033794_1" fromnode="node74" tonode="node72" priority="70" nolanes="2" speed="15"/>
<edge id="96033794_2" fromnode="node73" tonode="node68" priority="70" nolanes="2" speed="15"/>
<edge id="96033849_1" fromnode="node6" tonode="node68" priority="70" nolanes="2" speed="15"/>
<edge id="96033849_2" fromnode="node74" tonode="node7" priority="70" nolanes="2" speed="15"/>
<edge id="96033901_1" fromnode="node75" tonode="node19" priority="70" nolanes="2" speed="15"/>
<edge id="96033901_2" fromnode="node20" tonode="node72" priority="70" nolanes="2" speed="15"/>
<edge id="96033899_1" fromnode="node73" tonode="node72" priority="70" nolanes="2" speed="15"/>
<edge id="96033899_2" fromnode="node75" tonode="node72" priority="70" nolanes="2" speed="15"/>
<edge id="96033900_1" fromnode="node75" tonode="node42" priority="70" nolanes="2" speed="15"/>
<edge id="96033900_2" fromnode="node41" tonode="node72" priority="70" nolanes="2" speed="15"/>
<edge id="96033795_1" fromnode="node70" tonode="node68" priority="70" nolanes="2" speed="15"/>
<edge id="96033795_2" fromnode="node76" tonode="node69" priority="70" nolanes="2" speed="15"/>
<edge id="96033791_1" fromnode="node77" tonode="node68" priority="70" nolanes="2" speed="15"/>
<edge id="96033791_2" fromnode="node76" tonode="node65" priority="70" nolanes="2" speed="15"/>
<edge id="96033789_1" fromnode="node71" tonode="node65" priority="70" nolanes="2" speed="15"/>
<edge id="96033789_2" fromnode="node77" tonode="node68" priority="70" nolanes="2" speed="15"/>
<edge id="96033845_1" fromnode="node26" tonode="node68" priority="70" nolanes="2" speed="15"/>
<edge id="96033845_2" fromnode="node78" tonode="node25" priority="70" nolanes="2" speed="15"/>
<edge id="96033792_1" fromnode="node76" tonode="node68" priority="70" nolanes="2" speed="15"/>
<edge id="96033792_2" fromnode="node78" tonode="node68" priority="70" nolanes="2" speed="15"/>
<edge id="96033793_1" fromnode="node78" tonode="node68" priority="70" nolanes="2" speed="15"/>
<edge id="96033793_2" fromnode="node74" tonode="node68" priority="70" nolanes="2" speed="15"/>
<edge id="96033884_2" fromnode="node79" tonode="node80" priority="75" nolanes="2" speed="30"/>
<edge id="96033907_2" fromnode="node79" tonode="node81" priority="75" nolanes="2" speed="30"/>
<edge id="96033878_1" fromnode="node79" tonode="node82" priority="75" nolanes="2" speed="30"/>
<edge id="96033948_1" fromnode="node38" tonode="node83" priority="70" nolanes="2" speed="15"/>
<edge id="96033880_1" fromnode="node84" tonode="node85" priority="70" nolanes="2" speed="20"/>
<edge id="96033902_1" fromnode="node41" tonode="node86" priority="70" nolanes="2" speed="15"/>
<edge id="96033902_2" fromnode="node84" tonode="node42" priority="70" nolanes="2" speed="15"/>
<edge id="96033973_1" fromnode="node43" tonode="node87" priority="70" nolanes="2" speed="20"/>
<edge id="96033973_2" fromnode="node88" tonode="node35" priority="70" nolanes="2" speed="20"/>
<edge id="96033967_1" fromnode="node88" tonode="node83" priority="70" nolanes="2" speed="20"/>
<edge id="96033968_1" fromnode="node88" tonode="node89" priority="75" nolanes="2" speed="30"/>
<edge id="96033877_1" fromnode="node84" tonode="node82" priority="70" nolanes="2" speed="15"/>
<edge id="96353020_1" fromnode="node90" tonode="node82" priority="75" nolanes="6" speed="70"/>
<edge id="96033770_1" fromnode="node90" tonode="node80" priority="75" nolanes="2" speed="30"/>
<edge id="96140201_1" fromnode="node91" tonode="node80" priority="70" nolanes="2" speed="20"/>
<edge id="96140214_1" fromnode="node92" tonode="node93" priority="70" nolanes="2" speed="20"/>
<edge id="96140214_2" fromnode="node91" tonode="node94" priority="70" nolanes="2" speed="20"/>
<edge id="96140212_1" fromnode="node92" tonode="node95" priority="70" nolanes="2" speed="20"/>
<edge id="96140212_2" fromnode="node96" tonode="node94" priority="70" nolanes="2" speed="20"/>
<edge id="96033775_1" fromnode="node96" tonode="node97" priority="70" nolanes="2" speed="20"/>
<edge id="96033775_2" fromnode="node98" tonode="node95" priority="70" nolanes="2" speed="20"/>
<edge id="96033767_1" fromnode="node98" tonode="node80" priority="70" nolanes="2" speed="15"/>
<edge id="96033777_1" fromnode="node98" tonode="node80" priority="70" nolanes="2" speed="20"/>
<edge id="96352233_1" fromnode="node99" tonode="node100" priority="75" nolanes="6" speed="70"/>
<edge id="96352233_2" fromnode="node90" tonode="node101" priority="75" nolanes="6" speed="70"/>
<edge id="96033776_1" fromnode="node96" tonode="node101" priority="75" nolanes="2" speed="30"/>
<edge id="96033776_2" fromnode="node99" tonode="node95" priority="75" nolanes="2" speed="30"/>
<edge id="96352232_1" fromnode="node102" tonode="node101" priority="75" nolanes="6" speed="70"/>
<edge id="96352232_2" fromnode="node99" tonode="node65" priority="75" nolanes="6" speed="70"/>
<edge id="96140202_1" fromnode="node102" tonode="node93" priority="70" nolanes="2" speed="20"/>
<edge id="96140202_2" fromnode="node91" tonode="node65" priority="70" nolanes="2" speed="20"/>
<edge id="96033855_2" fromnode="node62" tonode="node45" priority="70" nolanes="2" speed="15"/>
<edge id="96033830_1" fromnode="node103" tonode="node63" priority="70" nolanes="2" speed="15"/>
<edge id="96033830_2" fromnode="node62" tonode="node104" priority="70" nolanes="2" speed="15"/>
<edge id="96033831_1" fromnode="node103" tonode="node45" priority="70" nolanes="2" speed="15"/>
<edge id="96033853_1" fromnode="node105" tonode="node30" priority="70" nolanes="2" speed="15"/>
<edge id="96033853_2" fromnode="node64" tonode="node106" priority="70" nolanes="2" speed="15"/>
<edge id="96033837_1" fromnode="node107" tonode="node30" priority="70" nolanes="2" speed="15"/>
<edge id="96033837_2" fromnode="node64" tonode="node108" priority="70" nolanes="2" speed="15"/>
<edge id="96033852_1" fromnode="node109" tonode="node108" priority="70" nolanes="2" speed="15"/>
<edge id="96033852_2" fromnode="node107" tonode="node110" priority="70" nolanes="2" speed="15"/>
<edge id="96033835_1" fromnode="node111" tonode="node108" priority="70" nolanes="2" speed="15"/>
<edge id="96033835_2" fromnode="node107" tonode="node30" priority="70" nolanes="2" speed="15"/>
<edge id="96033851_1" fromnode="node112" tonode="node30" priority="70" nolanes="2" speed="15"/>
<edge id="96033851_2" fromnode="node111" tonode="node113" priority="70" nolanes="2" speed="15"/>
<edge id="96033812_2" fromnode="node111" tonode="node30" priority="70" nolanes="2" speed="15"/>
<edge id="96033829_2" fromnode="node103" tonode="node114" priority="70" nolanes="2" speed="15"/>
<edge id="96033771_1" fromnode="node115" tonode="node100" priority="75" nolanes="2" speed="30"/>
<edge id="96033771_2" fromnode="node90" tonode="node116" priority="75" nolanes="2" speed="30"/>
<edge id="96033869_1" fromnode="node115" tonode="node86" priority="70" nolanes="2" speed="20"/>
<edge id="96033869_2" fromnode="node84" tonode="node116" priority="70" nolanes="2" speed="20"/>
<edge id="96033787_1" fromnode="node117" tonode="node116" priority="70" nolanes="2" speed="20"/>
<edge id="96033787_2" fromnode="node115" tonode="node85" priority="70" nolanes="2" speed="20"/>
<edge id="96033786_1" fromnode="node77" tonode="node85" priority="70" nolanes="2" speed="15"/>
<edge id="96033786_2" fromnode="node117" tonode="node65" priority="70" nolanes="2" speed="15"/>
<edge id="96033781_1" fromnode="node118" tonode="node85" priority="70" nolanes="2" speed="20"/>
<edge id="96033781_2" fromnode="node117" tonode="node119" priority="70" nolanes="2" speed="20"/>
<edge id="96033782_1" fromnode="node66" tonode="node119" priority="70" nolanes="2" speed="15"/>
<edge id="96033782_2" fromnode="node118" tonode="node65" priority="70" nolanes="2" speed="15"/>
<edge id="96033783_1" fromnode="node120" tonode="node119" priority="70" nolanes="2" speed="20"/>
<edge id="96033783_2" fromnode="node118" tonode="node121" priority="70" nolanes="2" speed="20"/>
<edge id="96033784_1" fromnode="node67" tonode="node121" priority="70" nolanes="2" speed="15"/>
<edge id="96033784_2" fromnode="node120" tonode="node68" priority="70" nolanes="2" speed="15"/>
<edge id="96033765_1" fromnode="node122" tonode="node121" priority="70" nolanes="2" speed="20"/>
<edge id="96033765_2" fromnode="node123" tonode="node124" priority="70" nolanes="2" speed="20"/>
<edge id="96033774_1" fromnode="node123" tonode="node125" priority="70" nolanes="2" speed="20"/>
<edge id="96033774_2" fromnode="node126" tonode="node121" priority="70" nolanes="2" speed="20"/>
<edge id="96033779_1" fromnode="node99" tonode="node125" priority="75" nolanes="2" speed="30"/>
<edge id="96033779_2" fromnode="node126" tonode="node101" priority="75" nolanes="2" speed="30"/>
<edge id="96352231_1" fromnode="node122" tonode="node65" priority="70" nolanes="2" speed="20"/>
<edge id="96352231_2" fromnode="node102" tonode="node124" priority="70" nolanes="2" speed="20"/>
<edge id="96033836_1" fromnode="node107" tonode="node121" priority="70" nolanes="2" speed="15"/>
<edge id="96033836_2" fromnode="node123" tonode="node108" priority="70" nolanes="2" speed="15"/>
<edge id="96552260_2" fromnode="node122" tonode="node127" priority="70" nolanes="2" speed="20"/>
<edge id="96033834_1" fromnode="node111" tonode="node128" priority="70" nolanes="2" speed="15"/>
<edge id="96033834_2" fromnode="node129" tonode="node30" priority="70" nolanes="2" speed="15"/>
<edge id="96033780_1" fromnode="node126" tonode="node121" priority="70" nolanes="2" speed="20"/>
<edge id="96033780_2" fromnode="node120" tonode="node125" priority="70" nolanes="2" speed="20"/>
</edges>
