<?xml version="1.0"?>

<!-- generated on Mon Feb 18 19:21:39 2013 by SUMO netconvert Version 0.12.3
<?xml version="1.0" encoding="iso-8859-1"?>

<configuration xmlns:xsi="http://www.w3.org/2001/XMLSchema-instance" xsi:noNamespaceSchemaLocation="http://sumo.sf.net/xsd/netconvertConfiguration.xsd">

    <input>
        <xml-node-files value="/home/vanzi/src/ns-allinone-2.35/ns-2.35/gpsr/scence/afton_oak_houston/cut_area/afton_oak_area3.nod.xml"/>
        <xml-edge-files value="/home/vanzi/src/ns-allinone-2.35/ns-2.35/gpsr/scence/afton_oak_houston/cut_area/afton_oak_area3.edg.xml"/>
    </input>

    <output>
        <output-file value="/home/vanzi/src/ns-allinone-2.35/ns-2.35/gpsr/scence/afton_oak_houston/cut_area/afton_oak_area3.net.xml"/>
    </output>

    <processing>
        <speed-in-kmh value="false"/>
        <remove-geometry value="false"/>
        <remove-isolated value="false"/>
        <no-turnarounds value="false"/>
    </processing>

    <building_defaults>
        <type value="Unknown"/>
        <lanenumber value="2"/>
        <speed value="25"/>
        <priority value="75"/>
    </building_defaults>

    <report>
        <verbose value="true"/>
        <print-options value="false"/>
    </report>

</configuration>
-->

<net>

   <location netOffset="-510.00,-580.00" convBoundary="0.00,0.00,1112.00,1190.00" origBoundary="510.00,580.00,1622.00,1770.00" projParameter="!"/>

   <edge id=":node0_0" function="internal">
      <lanes>
         <lane id=":node0_0_0" depart="0" maxspeed="15.00" length="7.28" shape="906.65,556.27 906.32,554.99 905.31,553.86 903.64,552.86 901.29,552.01"/>
      </lanes>
   </edge>
   <edge id=":node0_1" function="internal">
      <lanes>
         <lane id=":node0_1_0" depart="0" maxspeed="15.00" length="16.25" shape="906.65,556.27 906.69,551.45 906.84,548.16 907.16,544.87 907.71,540.08"/>
      </lanes>
   </edge>
   <edge id=":node0_2" function="internal">
      <lanes>
         <lane id=":node0_2_0" depart="0" maxspeed="15.00" length="15.88" shape="909.95,556.27 909.99,551.56 910.14,548.34 910.46,545.12 910.99,540.44"/>
      </lanes>
   </edge>
   <edge id=":node0_3" function="internal">
      <lanes>
         <lane id=":node0_3_0" depart="0" maxspeed="15.00" length="4.82" shape="909.95,556.27 910.77,555.04 911.60,554.62 912.42,555.04 913.25,556.27"/>
      </lanes>
   </edge>
   <edge id=":node0_4" function="internal">
      <lanes>
         <lane id=":node0_4_0" depart="0" maxspeed="15.00" length="15.15" shape="917.55,541.17 917.04,545.64 916.73,548.70 916.59,551.78 916.55,556.27"/>
      </lanes>
   </edge>
   <edge id=":node0_5" function="internal">
      <lanes>
         <lane id=":node0_5_0" depart="0" maxspeed="15.00" length="15.52" shape="914.27,540.80 913.75,545.38 913.44,548.52 913.29,551.67 913.25,556.27"/>
      </lanes>
   </edge>
   <edge id=":node0_6" function="internal">
      <lanes>
         <lane id=":node0_6_0" depart="0" maxspeed="15.00" length="17.26" shape="914.27,540.80 913.05,545.50 910.63,548.41 907.02,549.52 902.22,548.84"/>
      </lanes>
   </edge>
   <edge id=":node0_7" function="internal">
      <lanes>
         <lane id=":node0_7_0" depart="0" maxspeed="15.00" length="4.82" shape="914.27,540.80 913.31,541.94 912.44,542.26 911.67,541.76 910.99,540.44"/>
      </lanes>
   </edge>
   <edge id=":node0_8" function="internal">
      <lanes>
         <lane id=":node0_8_0" depart="0" maxspeed="15.00" length="5.22" shape="904.06,542.51 905.52,542.71 906.61,542.37 907.34,541.50 907.71,540.08"/>
      </lanes>
   </edge>
   <edge id=":node0_9" function="internal">
      <lanes>
         <lane id=":node0_9_0" depart="0" maxspeed="15.00" length="15.79" shape="903.14,545.67 907.56,547.44 910.72,549.80 912.62,552.74 913.25,556.27"/>
      </lanes>
   </edge>
   <edge id=":node0_10" function="internal">
      <lanes>
         <lane id=":node0_10_0" depart="0" maxspeed="15.00" length="4.82" shape="903.14,545.67 904.10,546.81 904.26,547.72 903.63,548.40 902.22,548.84"/>
      </lanes>
   </edge>
   <edge id=":node1_0" function="internal">
      <lanes>
         <lane id=":node1_0_0" depart="0" maxspeed="15.00" length="19.30" shape="926.18,438.75 927.00,444.41 927.40,448.33 927.34,452.25 926.80,457.94"/>
      </lanes>
   </edge>
   <edge id=":node1_1" function="internal">
      <lanes>
         <lane id=":node1_1_0" depart="0" maxspeed="15.00" length="18.47" shape="922.92,439.21 923.70,444.64 924.09,448.38 924.03,452.14 923.52,457.58"/>
      </lanes>
   </edge>
   <edge id=":node1_2" function="internal">
      <lanes>
         <lane id=":node1_2_0" depart="0" maxspeed="15.00" length="18.49" shape="922.92,439.21 922.92,444.52 921.15,448.04 917.62,449.78 912.31,449.74"/>
      </lanes>
   </edge>
   <edge id=":node1_3" function="internal">
      <lanes>
         <lane id=":node1_3_0" depart="0" maxspeed="15.00" length="4.82" shape="922.92,439.21 922.28,440.55 921.52,441.08 920.64,440.79 919.65,439.68"/>
      </lanes>
   </edge>
   <edge id=":node1_4" function="internal">
      <lanes>
         <lane id=":node1_4_0" depart="0" maxspeed="15.00" length="5.39" shape="913.29,443.22 914.84,443.23 915.87,442.72 916.38,441.69 916.38,440.15"/>
      </lanes>
   </edge>
   <edge id=":node1_5" function="internal">
      <lanes>
         <lane id=":node1_5_0" depart="0" maxspeed="15.00" length="17.38" shape="912.80,446.48 917.88,447.84 921.36,450.14 923.24,453.38 923.52,457.58"/>
      </lanes>
   </edge>
   <edge id=":node1_6" function="internal">
      <lanes>
         <lane id=":node1_6_0" depart="0" maxspeed="15.00" length="4.82" shape="912.80,446.48 913.90,447.48 914.19,448.36 913.66,449.11 912.31,449.74"/>
      </lanes>
   </edge>
   <edge id=":node1_7" function="internal">
      <lanes>
         <lane id=":node1_7_0" depart="0" maxspeed="15.00" length="7.10" shape="916.96,456.85 916.76,455.48 915.84,454.38 914.19,453.56 911.82,453.01"/>
      </lanes>
   </edge>
   <edge id=":node1_8" function="internal">
      <lanes>
         <lane id=":node1_8_0" depart="0" maxspeed="15.00" length="16.80" shape="916.96,456.85 917.42,451.90 917.46,448.49 917.10,445.08 916.38,440.15"/>
      </lanes>
   </edge>
   <edge id=":node1_9" function="internal">
      <lanes>
         <lane id=":node1_9_0" depart="0" maxspeed="15.00" length="17.63" shape="920.24,457.21 920.73,452.02 920.77,448.43 920.40,444.86 919.65,439.68"/>
      </lanes>
   </edge>
   <edge id=":node1_10" function="internal">
      <lanes>
         <lane id=":node1_10_0" depart="0" maxspeed="15.00" length="4.82" shape="920.24,457.21 921.19,456.08 922.06,455.76 922.83,456.26 923.52,457.58"/>
      </lanes>
   </edge>
   <edge id=":node10_0" function="internal">
      <lanes>
         <lane id=":node10_0_0" depart="0" maxspeed="15.00" length="28.93" shape="242.04,231.86 229.78,232.03 220.93,232.55 215.52,233.41 213.53,234.62"/>
      </lanes>
   </edge>
   <edge id=":node10_1" function="internal">
      <lanes>
         <lane id=":node10_1_0" depart="0" maxspeed="15.00" length="40.20" shape="242.04,231.86 232.79,232.01 221.56,231.91 210.69,230.72 202.48,227.61"/>
      </lanes>
   </edge>
   <edge id=":node10_2" function="internal">
      <lanes>
         <lane id=":node10_2_0" depart="0" maxspeed="15.00" length="38.25" shape="242.04,228.56 233.09,228.81 222.52,228.92 212.31,227.94 204.40,224.92"/>
      </lanes>
   </edge>
   <edge id=":node10_3" function="internal">
      <lanes>
         <lane id=":node10_3_0" depart="0" maxspeed="15.00" length="43.07" shape="242.04,228.56 226.93,227.54 221.32,224.49 225.19,219.40 238.54,212.27"/>
      </lanes>
   </edge>
   <edge id=":node10_4" function="internal">
      <lanes>
         <lane id=":node10_4_0" depart="0" maxspeed="15.00" length="4.82" shape="242.04,228.56 240.80,227.74 240.39,226.91 240.80,226.09 242.04,225.26"/>
      </lanes>
   </edge>
   <edge id=":node10_5" function="internal">
      <lanes>
         <lane id=":node10_5_0" depart="0" maxspeed="15.00" length="9.71" shape="241.25,218.29 238.24,219.90 237.37,221.04 238.63,221.73 242.04,221.96"/>
      </lanes>
   </edge>
   <edge id=":node10_6" function="internal">
      <lanes>
         <lane id=":node10_6_0" depart="0" maxspeed="15.00" length="35.48" shape="239.90,215.28 227.39,221.24 218.29,226.35 212.59,230.59 210.30,233.97"/>
      </lanes>
   </edge>
   <edge id=":node10_7" function="internal">
      <lanes>
         <lane id=":node10_7_0" depart="0" maxspeed="15.00" length="37.42" shape="239.90,215.28 226.41,220.95 215.99,224.45 208.66,225.78 204.40,224.92"/>
      </lanes>
   </edge>
   <edge id=":node10_8" function="internal">
      <lanes>
         <lane id=":node10_8_0" depart="0" maxspeed="15.00" length="4.82" shape="239.90,215.28 238.43,215.03 237.72,214.45 237.75,213.53 238.54,212.27"/>
      </lanes>
   </edge>
   <edge id=":node10_9" function="internal">
      <lanes>
         <lane id=":node10_9_0" depart="0" maxspeed="15.00" length="30.92" shape="208.24,219.55 210.93,219.54 216.65,217.82 225.40,214.39 237.19,209.26"/>
      </lanes>
   </edge>
   <edge id=":node10_10" function="internal">
      <lanes>
         <lane id=":node10_10_0" depart="0" maxspeed="15.00" length="34.38" shape="208.24,219.55 215.54,222.38 224.44,222.94 233.68,222.40 242.04,221.96"/>
      </lanes>
   </edge>
   <edge id=":node10_11" function="internal">
      <lanes>
         <lane id=":node10_11_0" depart="0" maxspeed="15.00" length="36.31" shape="206.32,222.24 213.93,225.16 223.48,225.93 233.39,225.61 242.04,225.26"/>
      </lanes>
   </edge>
   <edge id=":node10_12" function="internal">
      <lanes>
         <lane id=":node10_12_0" depart="0" maxspeed="15.00" length="13.15" shape="206.32,222.24 208.64,224.45 210.08,227.15 210.63,230.32 210.30,233.97"/>
      </lanes>
   </edge>
   <edge id=":node10_13" function="internal">
      <lanes>
         <lane id=":node10_13_0" depart="0" maxspeed="15.00" length="4.82" shape="206.32,222.24 206.84,223.63 206.70,224.54 205.89,224.97 204.40,224.92"/>
      </lanes>
   </edge>
   <edge id=":node10_14" function="internal">
      <lanes>
         <lane id=":node10_14_0" depart="0" maxspeed="15.00" length="5.55" shape="203.82,232.68 204.01,231.01 203.85,229.61 203.34,228.48 202.48,227.61"/>
      </lanes>
   </edge>
   <edge id=":node10_15" function="internal">
      <lanes>
         <lane id=":node10_15_0" depart="0" maxspeed="15.00" length="38.52" shape="207.06,233.32 209.60,229.17 215.69,224.28 225.34,218.64 238.54,212.27"/>
      </lanes>
   </edge>
   <edge id=":node10_16" function="internal">
      <lanes>
         <lane id=":node10_16_0" depart="0" maxspeed="15.00" length="37.26" shape="207.06,233.32 209.85,229.80 216.61,227.28 227.34,225.77 242.04,225.26"/>
      </lanes>
   </edge>
   <edge id=":node10_17" function="internal">
      <lanes>
         <lane id=":node10_17_0" depart="0" maxspeed="15.00" length="4.82" shape="207.06,233.32 208.11,232.27 209.00,232.03 209.73,232.60 210.30,233.97"/>
      </lanes>
   </edge>
   <edge id=":node11_0" function="internal">
      <lanes>
         <lane id=":node11_0_0" depart="0" maxspeed="15.00" length="8.04" shape="907.55,378.31 907.00,377.10 905.73,376.03 903.73,375.10 901.00,374.32"/>
      </lanes>
   </edge>
   <edge id=":node11_1" function="internal">
      <lanes>
         <lane id=":node11_1_0" depart="0" maxspeed="15.00" length="16.42" shape="907.55,378.31 906.92,373.49 906.66,370.16 906.63,366.82 906.65,361.95"/>
      </lanes>
   </edge>
   <edge id=":node11_2" function="internal">
      <lanes>
         <lane id=":node11_2_0" depart="0" maxspeed="15.00" length="15.95" shape="910.81,377.85 910.20,373.16 909.96,369.93 909.93,366.68 909.95,361.95"/>
      </lanes>
   </edge>
   <edge id=":node11_3" function="internal">
      <lanes>
         <lane id=":node11_3_0" depart="0" maxspeed="15.00" length="4.82" shape="910.81,377.85 911.46,376.51 912.21,375.98 913.09,376.27 914.08,377.38"/>
      </lanes>
   </edge>
   <edge id=":node11_4" function="internal">
      <lanes>
         <lane id=":node11_4_0" depart="0" maxspeed="15.00" length="15.01" shape="916.55,361.95 916.53,366.41 916.55,369.46 916.78,372.50 917.35,376.91"/>
      </lanes>
   </edge>
   <edge id=":node11_5" function="internal">
      <lanes>
         <lane id=":node11_5_0" depart="0" maxspeed="15.00" length="15.48" shape="913.25,361.95 913.23,366.54 913.26,369.69 913.49,372.83 914.08,377.38"/>
      </lanes>
   </edge>
   <edge id=":node11_6" function="internal">
      <lanes>
         <lane id=":node11_6_0" depart="0" maxspeed="15.00" length="17.81" shape="913.25,361.95 912.53,366.95 910.37,370.14 906.78,371.53 901.74,371.10"/>
      </lanes>
   </edge>
   <edge id=":node11_7" function="internal">
      <lanes>
         <lane id=":node11_7_0" depart="0" maxspeed="15.00" length="4.82" shape="913.25,361.95 912.42,363.19 911.60,363.60 910.77,363.19 909.95,361.95"/>
      </lanes>
   </edge>
   <edge id=":node11_8" function="internal">
      <lanes>
         <lane id=":node11_8_0" depart="0" maxspeed="15.00" length="5.30" shape="903.23,364.67 904.73,364.80 905.79,364.39 906.44,363.44 906.65,361.95"/>
      </lanes>
   </edge>
   <edge id=":node11_9" function="internal">
      <lanes>
         <lane id=":node11_9_0" depart="0" maxspeed="15.00" length="15.94" shape="902.49,367.89 907.18,369.40 910.68,371.48 912.98,374.14 914.08,377.38"/>
      </lanes>
   </edge>
   <edge id=":node11_10" function="internal">
      <lanes>
         <lane id=":node11_10_0" depart="0" maxspeed="15.00" length="4.82" shape="902.49,367.89 903.51,368.97 903.72,369.87 903.14,370.58 901.74,371.10"/>
      </lanes>
   </edge>
   <edge id=":node12_0" function="internal">
      <lanes>
         <lane id=":node12_0_0" depart="0" maxspeed="15.00" length="17.77" shape="916.55,710.73 915.87,715.52 913.84,719.03 910.46,721.26 905.72,722.21"/>
      </lanes>
   </edge>
   <edge id=":node12_1" function="internal">
      <lanes>
         <lane id=":node12_1_0" depart="0" maxspeed="15.00" length="12.67" shape="913.25,710.73 912.77,714.14 911.32,716.65 908.91,718.24 905.53,718.92"/>
      </lanes>
   </edge>
   <edge id=":node12_2" function="internal">
      <lanes>
         <lane id=":node12_2_0" depart="0" maxspeed="15.00" length="4.82" shape="913.25,710.73 912.42,711.97 911.60,712.38 910.77,711.97 909.95,710.73"/>
      </lanes>
   </edge>
   <edge id=":node12_3" function="internal">
      <lanes>
         <lane id=":node12_3_0" depart="0" maxspeed="15.00" length="2.47" shape="905.14,712.33 905.80,712.20 906.27,711.89 906.56,711.40 906.65,710.73"/>
      </lanes>
   </edge>
   <edge id=":node12_4" function="internal">
      <lanes>
         <lane id=":node12_4_0" depart="0" maxspeed="15.00" length="7.57" shape="905.34,715.63 907.36,715.22 908.80,714.27 909.66,712.77 909.95,710.73"/>
      </lanes>
   </edge>
   <edge id=":node12_5" function="internal">
      <lanes>
         <lane id=":node12_5_0" depart="0" maxspeed="15.00" length="4.82" shape="905.34,715.63 906.62,716.38 907.08,717.18 906.72,718.02 905.53,718.92"/>
      </lanes>
   </edge>
   <edge id=":node13_0" function="internal">
      <lanes>
         <lane id=":node13_0_0" depart="0" maxspeed="15.00" length="7.87" shape="906.65,645.48 906.27,644.19 905.15,643.03 903.27,642.02 900.64,641.15"/>
      </lanes>
   </edge>
   <edge id=":node13_1" function="internal">
      <lanes>
         <lane id=":node13_1_0" depart="0" maxspeed="15.00" length="16.56" shape="906.65,645.48 906.65,640.57 906.65,637.20 906.65,633.84 906.65,628.92"/>
      </lanes>
   </edge>
   <edge id=":node13_2" function="internal">
      <lanes>
         <lane id=":node13_2_0" depart="0" maxspeed="15.00" length="16.56" shape="909.95,645.48 909.95,640.57 909.95,637.20 909.95,633.84 909.95,628.92"/>
      </lanes>
   </edge>
   <edge id=":node13_3" function="internal">
      <lanes>
         <lane id=":node13_3_0" depart="0" maxspeed="15.00" length="4.82" shape="909.95,645.48 910.77,644.24 911.60,643.83 912.42,644.24 913.25,645.48"/>
      </lanes>
   </edge>
   <edge id=":node13_4" function="internal">
      <lanes>
         <lane id=":node13_4_0" depart="0" maxspeed="15.00" length="16.56" shape="916.55,628.92 916.55,633.84 916.55,637.20 916.55,640.57 916.55,645.48"/>
      </lanes>
   </edge>
   <edge id=":node13_5" function="internal">
      <lanes>
         <lane id=":node13_5_0" depart="0" maxspeed="15.00" length="16.56" shape="913.25,628.92 913.25,633.84 913.25,637.20 913.25,640.57 913.25,645.48"/>
      </lanes>
   </edge>
   <edge id=":node13_6" function="internal">
      <lanes>
         <lane id=":node13_6_0" depart="0" maxspeed="15.00" length="18.16" shape="913.25,628.92 912.51,634.05 910.31,637.27 906.63,638.57 901.49,637.96"/>
      </lanes>
   </edge>
   <edge id=":node13_7" function="internal">
      <lanes>
         <lane id=":node13_7_0" depart="0" maxspeed="15.00" length="4.82" shape="913.25,628.92 912.42,630.16 911.60,630.57 910.77,630.16 909.95,628.92"/>
      </lanes>
   </edge>
   <edge id=":node13_8" function="internal">
      <lanes>
         <lane id=":node13_8_0" depart="0" maxspeed="15.00" length="5.35" shape="903.19,631.58 904.70,631.76 905.78,631.38 906.43,630.43 906.65,628.92"/>
      </lanes>
   </edge>
   <edge id=":node13_9" function="internal">
      <lanes>
         <lane id=":node13_9_0" depart="0" maxspeed="15.00" length="16.52" shape="902.34,634.77 907.11,636.53 910.52,638.90 912.57,641.89 913.25,645.48"/>
      </lanes>
   </edge>
   <edge id=":node13_10" function="internal">
      <lanes>
         <lane id=":node13_10_0" depart="0" maxspeed="15.00" length="4.82" shape="902.34,634.77 903.32,635.89 903.51,636.79 902.90,637.48 901.49,637.96"/>
      </lanes>
   </edge>
   <edge id=":node14_0" function="internal">
      <lanes>
         <lane id=":node14_0_0" depart="0" maxspeed="15.00" length="18.29" shape="587.76,557.71 583.57,557.27 579.50,558.21 575.55,560.52 571.73,564.22"/>
      </lanes>
   </edge>
   <edge id=":node14_1" function="internal">
      <lanes>
         <lane id=":node14_1_0" depart="0" maxspeed="15.00" length="26.18" shape="588.61,554.52 581.90,552.91 575.81,551.83 569.66,551.12 562.77,550.62"/>
      </lanes>
   </edge>
   <edge id=":node14_2" function="internal">
      <lanes>
         <lane id=":node14_2_0" depart="0" maxspeed="15.00" length="20.38" shape="588.61,554.52 583.05,552.20 580.44,548.96 580.76,544.80 584.02,539.74"/>
      </lanes>
   </edge>
   <edge id=":node14_3" function="internal">
      <lanes>
         <lane id=":node14_3_0" depart="0" maxspeed="15.00" length="4.82" shape="588.61,554.52 587.63,553.41 587.44,552.51 588.05,551.81 589.46,551.34"/>
      </lanes>
   </edge>
   <edge id=":node14_4" function="internal">
      <lanes>
         <lane id=":node14_4_0" depart="0" maxspeed="15.00" length="5.67" shape="589.03,544.03 588.13,545.44 588.04,546.60 588.76,547.50 590.31,548.15"/>
      </lanes>
   </edge>
   <edge id=":node14_5" function="internal">
      <lanes>
         <lane id=":node14_5_0" depart="0" maxspeed="15.00" length="26.59" shape="589.03,544.03 584.50,549.32 580.38,554.13 576.26,558.93 571.73,564.22"/>
      </lanes>
   </edge>
   <edge id=":node14_6" function="internal">
      <lanes>
         <lane id=":node14_6_0" depart="0" maxspeed="15.00" length="26.59" shape="586.53,541.89 581.99,547.18 577.87,551.98 573.76,556.79 569.22,562.08"/>
      </lanes>
   </edge>
   <edge id=":node14_7" function="internal">
      <lanes>
         <lane id=":node14_7_0" depart="0" maxspeed="15.00" length="26.24" shape="586.53,541.89 581.93,546.06 576.44,548.90 570.06,550.43 562.77,550.62"/>
      </lanes>
   </edge>
   <edge id=":node14_8" function="internal">
      <lanes>
         <lane id=":node14_8_0" depart="0" maxspeed="15.00" length="4.82" shape="586.53,541.89 585.10,542.29 584.20,542.07 583.84,541.22 584.02,539.74"/>
      </lanes>
   </edge>
   <edge id=":node14_9" function="internal">
      <lanes>
         <lane id=":node14_9_0" depart="0" maxspeed="15.00" length="20.15" shape="563.17,544.03 568.89,543.91 573.85,542.79 578.06,540.69 581.52,537.59"/>
      </lanes>
   </edge>
   <edge id=":node14_10" function="internal">
      <lanes>
         <lane id=":node14_10_0" depart="0" maxspeed="15.00" length="26.84" shape="562.97,547.33 569.96,547.84 576.33,548.59 582.65,549.71 589.46,551.34"/>
      </lanes>
   </edge>
   <edge id=":node14_11" function="internal">
      <lanes>
         <lane id=":node14_11_0" depart="0" maxspeed="15.00" length="23.46" shape="562.97,547.33 570.10,548.66 573.51,551.56 573.22,556.03 569.22,562.08"/>
      </lanes>
   </edge>
   <edge id=":node14_12" function="internal">
      <lanes>
         <lane id=":node14_12_0" depart="0" maxspeed="15.00" length="4.82" shape="562.97,547.33 564.16,548.22 564.52,549.07 564.06,549.87 562.77,550.62"/>
      </lanes>
   </edge>
   <edge id=":node14_13" function="internal">
      <lanes>
         <lane id=":node14_13_0" depart="0" maxspeed="15.00" length="6.15" shape="564.21,557.78 565.26,556.20 565.34,555.02 564.44,554.26 562.57,553.91"/>
      </lanes>
   </edge>
   <edge id=":node14_14" function="internal">
      <lanes>
         <lane id=":node14_14_0" depart="0" maxspeed="15.00" length="26.59" shape="564.21,557.78 568.75,552.49 572.86,547.69 576.98,542.88 581.52,537.59"/>
      </lanes>
   </edge>
   <edge id=":node14_15" function="internal">
      <lanes>
         <lane id=":node14_15_0" depart="0" maxspeed="15.00" length="26.59" shape="566.72,559.93 571.25,554.64 575.37,549.83 579.49,545.03 584.02,539.74"/>
      </lanes>
   </edge>
   <edge id=":node14_16" function="internal">
      <lanes>
         <lane id=":node14_16_0" depart="0" maxspeed="15.00" length="25.72" shape="566.72,559.93 571.97,554.92 577.52,551.82 583.34,550.62 589.46,551.34"/>
      </lanes>
   </edge>
   <edge id=":node14_17" function="internal">
      <lanes>
         <lane id=":node14_17_0" depart="0" maxspeed="15.00" length="4.82" shape="566.72,559.93 568.15,559.53 569.04,559.75 569.40,560.60 569.22,562.08"/>
      </lanes>
   </edge>
   <edge id=":node15_0" function="internal">
      <lanes>
         <lane id=":node15_0_0" depart="0" maxspeed="15.00" length="5.88" shape="517.69,636.61 515.95,636.02 514.58,636.06 513.57,636.74 512.93,638.05"/>
      </lanes>
   </edge>
   <edge id=":node15_1" function="internal">
      <lanes>
         <lane id=":node15_1_0" depart="0" maxspeed="15.00" length="18.22" shape="519.10,633.62 514.76,630.75 512.80,627.37 513.21,623.49 516.00,619.10"/>
      </lanes>
   </edge>
   <edge id=":node15_2" function="internal">
      <lanes>
         <lane id=":node15_2_0" depart="0" maxspeed="15.00" length="4.82" shape="519.10,633.62 518.33,632.35 518.31,631.43 519.04,630.86 520.51,630.64"/>
      </lanes>
   </edge>
   <edge id=":node15_3" function="internal">
      <lanes>
         <lane id=":node15_3_0" depart="0" maxspeed="15.00" length="5.35" shape="521.02,623.39 520.19,624.68 520.07,625.82 520.65,626.82 521.92,627.66"/>
      </lanes>
   </edge>
   <edge id=":node15_4" function="internal">
      <lanes>
         <lane id=":node15_4_0" depart="0" maxspeed="15.00" length="16.98" shape="521.02,623.39 517.78,627.23 515.79,630.08 514.39,633.26 512.93,638.05"/>
      </lanes>
   </edge>
   <edge id=":node15_5" function="internal">
      <lanes>
         <lane id=":node15_5_0" depart="0" maxspeed="15.00" length="18.41" shape="518.51,621.24 515.00,625.41 512.85,628.50 511.34,631.95 509.75,637.14"/>
      </lanes>
   </edge>
   <edge id=":node15_6" function="internal">
      <lanes>
         <lane id=":node15_6_0" depart="0" maxspeed="15.00" length="4.82" shape="518.51,621.24 517.08,621.65 516.18,621.42 515.83,620.57 516.00,619.10"/>
      </lanes>
   </edge>
   <edge id=":node15_7" function="internal">
      <lanes>
         <lane id=":node15_7_0" depart="0" maxspeed="15.00" length="21.24" shape="503.41,635.33 505.23,629.47 507.04,625.38 509.56,621.67 513.50,616.95"/>
      </lanes>
   </edge>
   <edge id=":node15_8" function="internal">
      <lanes>
         <lane id=":node15_8_0" depart="0" maxspeed="15.00" length="19.84" shape="506.58,636.24 508.29,630.63 509.91,626.92 512.22,623.58 516.00,619.10"/>
      </lanes>
   </edge>
   <edge id=":node15_9" function="internal">
      <lanes>
         <lane id=":node15_9_0" depart="0" maxspeed="15.00" length="17.84" shape="506.58,636.24 508.60,631.86 511.60,629.47 515.57,629.06 520.51,630.64"/>
      </lanes>
   </edge>
   <edge id=":node15_10" function="internal">
      <lanes>
         <lane id=":node15_10_0" depart="0" maxspeed="15.00" length="4.82" shape="506.58,636.24 507.71,635.27 508.62,635.10 509.30,635.73 509.75,637.14"/>
      </lanes>
   </edge>
   <edge id=":node16_0" function="internal">
      <lanes>
         <lane id=":node16_0_0" depart="0" maxspeed="15.00" length="6.37" shape="717.34,735.72 717.20,733.66 716.77,732.04 716.06,730.85 715.07,730.10"/>
      </lanes>
   </edge>
   <edge id=":node16_1" function="internal">
      <lanes>
         <lane id=":node16_1_0" depart="0" maxspeed="15.00" length="15.13" shape="720.64,735.72 721.22,731.64 722.94,728.66 725.82,726.76 729.86,725.94"/>
      </lanes>
   </edge>
   <edge id=":node16_2" function="internal">
      <lanes>
         <lane id=":node16_2_0" depart="0" maxspeed="15.00" length="4.82" shape="720.64,735.72 721.47,734.48 722.29,734.07 723.12,734.48 723.94,735.72"/>
      </lanes>
   </edge>
   <edge id=":node16_3" function="internal">
      <lanes>
         <lane id=":node16_3_0" depart="0" maxspeed="15.00" length="4.93" shape="730.24,732.53 728.93,732.80 727.99,733.42 727.43,734.39 727.24,735.72"/>
      </lanes>
   </edge>
   <edge id=":node16_4" function="internal">
      <lanes>
         <lane id=":node16_4_0" depart="0" maxspeed="15.00" length="15.66" shape="730.24,732.53 725.61,732.80 722.38,732.72 719.29,731.93 715.07,730.10"/>
      </lanes>
   </edge>
   <edge id=":node16_5" function="internal">
      <lanes>
         <lane id=":node16_5_0" depart="0" maxspeed="15.00" length="14.00" shape="730.05,729.24 725.91,729.49 723.02,729.43 720.26,728.74 716.48,727.11"/>
      </lanes>
   </edge>
   <edge id=":node16_6" function="internal">
      <lanes>
         <lane id=":node16_6_0" depart="0" maxspeed="15.00" length="4.82" shape="730.05,729.24 728.77,728.49 728.31,727.69 728.67,726.84 729.86,725.94"/>
      </lanes>
   </edge>
   <edge id=":node16_7" function="internal">
      <lanes>
         <lane id=":node16_7_0" depart="0" maxspeed="15.00" length="10.67" shape="719.31,721.15 722.19,722.37 724.30,722.85 726.51,722.86 729.66,722.65"/>
      </lanes>
   </edge>
   <edge id=":node16_8" function="internal">
      <lanes>
         <lane id=":node16_8_0" depart="0" maxspeed="15.00" length="12.33" shape="717.89,724.13 721.22,725.56 723.66,726.14 726.21,726.17 729.86,725.94"/>
      </lanes>
   </edge>
   <edge id=":node16_9" function="internal">
      <lanes>
         <lane id=":node16_9_0" depart="0" maxspeed="15.00" length="13.82" shape="717.89,724.13 720.54,725.93 722.43,728.46 723.56,731.72 723.94,735.72"/>
      </lanes>
   </edge>
   <edge id=":node16_10" function="internal">
      <lanes>
         <lane id=":node16_10_0" depart="0" maxspeed="15.00" length="4.82" shape="717.89,724.13 718.66,725.41 718.68,726.33 717.95,726.90 716.48,727.11"/>
      </lanes>
   </edge>
   <edge id=":node17_0" function="internal">
      <lanes>
         <lane id=":node17_0_0" depart="0" maxspeed="15.00" length="5.00" shape="483.48,713.82 483.29,712.46 482.70,711.50 481.74,710.91 480.38,710.72"/>
      </lanes>
   </edge>
   <edge id=":node17_1" function="internal">
      <lanes>
         <lane id=":node17_1_0" depart="0" maxspeed="15.00" length="15.82" shape="483.48,713.82 483.48,709.13 483.65,705.91 484.22,702.74 485.44,698.22"/>
      </lanes>
   </edge>
   <edge id=":node17_2" function="internal">
      <lanes>
         <lane id=":node17_2_0" depart="0" maxspeed="15.00" length="14.90" shape="486.78,713.82 486.78,709.40 486.93,706.37 487.47,703.38 488.61,699.12"/>
      </lanes>
   </edge>
   <edge id=":node17_3" function="internal">
      <lanes>
         <lane id=":node17_3_0" depart="0" maxspeed="15.00" length="4.82" shape="486.78,713.82 487.60,712.58 488.43,712.17 489.25,712.58 490.08,713.82"/>
      </lanes>
   </edge>
   <edge id=":node17_4" function="internal">
      <lanes>
         <lane id=":node17_4_0" depart="0" maxspeed="15.00" length="13.06" shape="494.96,700.94 493.96,704.67 493.50,707.28 493.37,709.95 493.38,713.82"/>
      </lanes>
   </edge>
   <edge id=":node17_5" function="internal">
      <lanes>
         <lane id=":node17_5_0" depart="0" maxspeed="15.00" length="13.98" shape="491.78,700.03 490.71,704.03 490.22,706.82 490.08,709.67 490.08,713.82"/>
      </lanes>
   </edge>
   <edge id=":node17_6" function="internal">
      <lanes>
         <lane id=":node17_6_0" depart="0" maxspeed="15.00" length="14.70" shape="491.78,700.03 490.28,703.26 487.88,705.57 484.58,706.96 480.38,707.42"/>
      </lanes>
   </edge>
   <edge id=":node17_7" function="internal">
      <lanes>
         <lane id=":node17_7_0" depart="0" maxspeed="15.00" length="4.82" shape="491.78,700.03 490.65,700.99 489.75,701.16 489.07,700.54 488.61,699.12"/>
      </lanes>
   </edge>
   <edge id=":node17_8" function="internal">
      <lanes>
         <lane id=":node17_8_0" depart="0" maxspeed="15.00" length="6.11" shape="480.38,700.82 482.31,700.66 483.80,700.17 484.84,699.36 485.44,698.22"/>
      </lanes>
   </edge>
   <edge id=":node17_9" function="internal">
      <lanes>
         <lane id=":node17_9_0" depart="0" maxspeed="15.00" length="15.64" shape="480.38,704.12 484.62,704.73 487.65,706.55 489.47,709.58 490.08,713.82"/>
      </lanes>
   </edge>
   <edge id=":node17_10" function="internal">
      <lanes>
         <lane id=":node17_10_0" depart="0" maxspeed="15.00" length="4.82" shape="480.38,704.12 481.62,704.94 482.03,705.77 481.62,706.59 480.38,707.42"/>
      </lanes>
   </edge>
   <edge id=":node18_0" function="internal">
      <lanes>