<?xml version="1.0"?>

<!-- generated on Mon Feb 18 17:53:35 2013 by SUMO netconvert Version 0.12.3
<?xml version="1.0" encoding="iso-8859-1"?>

<configuration xmlns:xsi="http://www.w3.org/2001/XMLSchema-instance" xsi:noNamespaceSchemaLocation="http://sumo.sf.net/xsd/netconvertConfiguration.xsd">

    <input>
        <xml-node-files value="/home/vanzi/src/ns-allinone-2.35/ns-2.35/gpsr/scence/afton_oak_houston/cut_area/afton_oak_houston.netc.cfg.nod.xml"/>
        <xml-edge-files value="/home/vanzi/src/ns-allinone-2.35/ns-2.35/gpsr/scence/afton_oak_houston/cut_area/afton_oak_houston.netc.cfg.edg.xml"/>
    </input>

    <output>
        <output-file value="/home/vanzi/src/ns-allinone-2.35/ns-2.35/gpsr/scence/afton_oak_houston/cut_area/afton_oak_houston.netc.cfg.net.xml"/>
    </output>

    <processing>
        <speed-in-kmh value="false"/>
        <remove-geometry value="false"/>
        <remove-isolated value="false"/>
        <no-turnarounds value="false"/>
    </processing>

    <building_defaults>
        <type value="Unknown"/>
        <lanenumber value="2"/>
        <speed value="25"/>
        <priority value="75"/>
    </building_defaults>

    <report>
        <verbose value="true"/>
        <print-options value="false"/>
    </report>

</configuration>
-->

<net>

   <location netOffset="-510.00,-580.00" convBoundary="0.00,0.00,1112.00,1171.00" origBoundary="510.00,580.00,1622.00,1751.00" projParameter="!"/>

   <edge id="96033765_1" from="node122" to="node121" priority="70" type="" function="normal">
      <lanes>
         <lane id="96033765_1_0" depart="1" maxspeed="20.00" length="1009.01" shape="226.57,1131.29 187.59,123.75"/>
         <lane id="96033765_1_1" depart="0" maxspeed="20.00" length="1009.01" shape="229.87,1131.16 190.83,122.20"/>
      </lanes>
   </edge>
   <edge id="96033765_2" from="node123" to="node124" priority="70" type="" function="normal">
      <lanes>
         <lane id="96033765_2_0" depart="1" maxspeed="20.00" length="990.16" shape="183.57,989.03 227.35,-0.14"/>
         <lane id="96033765_2_1" depart="0" maxspeed="20.00" length="990.16" shape="186.87,989.17 230.65,-0.05"/>
      </lanes>
   </edge>
   <edge id="96033767_1" from="node98" to="node80" priority="70" type="" function="normal">
      <lanes>
         <lane id="96033767_1_0" depart="1" maxspeed="15.00" length="802.60" shape="49.14,816.86 -3.89,16.17"/>
         <lane id="96033767_1_1" depart="0" maxspeed="15.00" length="802.60" shape="52.46,817.04 -0.59,16.04"/>
      </lanes>
   </edge>
   <edge id="96033770_1" from="node90" to="node80" priority="75" type="" function="normal">
      <lanes>
         <lane id="96033770_1_0" depart="1" maxspeed="30.00" length="520.92" shape="15.67,536.38 -4.33,16.18"/>
         <lane id="96033770_1_1" depart="0" maxspeed="30.00" length="520.92" shape="18.99,536.93 -1.03,16.06"/>
      </lanes>
   </edge>
   <edge id="96033771_1" from="node115" to="node100" priority="75" type="" function="normal">
      <lanes>
         <lane id="96033771_1_0" depart="1" maxspeed="30.00" length="427.78" shape="38.04,427.62 15.78,0.50"/>
         <lane id="96033771_1_1" depart="0" maxspeed="30.00" length="427.78" shape="41.34,427.45 19.07,0.17"/>
      </lanes>
   </edge>
   <edge id="96033771_2" from="node90" to="node116" priority="75" type="" function="normal">
      <lanes>
         <lane id="96033771_2_0" depart="1" maxspeed="30.00" length="507.78" shape="15.85,536.41 38.04,-0.20"/>
         <lane id="96033771_2_1" depart="0" maxspeed="30.00" length="507.78" shape="19.13,536.95 38.90,58.86"/>
      </lanes>
   </edge>
   <edge id="96033774_1" from="node123" to="node125" priority="70" type="" function="normal">
      <lanes>
         <lane id="96033774_1_0" depart="1" maxspeed="20.00" length="913.46" shape="182.61,988.99 172.50,75.67"/>
         <lane id="96033774_1_1" depart="0" maxspeed="20.00" length="913.46" shape="185.91,989.13 175.80,75.63"/>
      </lanes>
   </edge>
   <edge id="96033774_2+96033780_1" from="node126" to="node121" priority="70" type="" function="normal">
      <lanes>
         <lane id="96033774_2+96033780_1_0" depart="1" maxspeed="20.00" length="802.30" shape="165.07,894.95 176.20,-0.14"/>
         <lane id="96033774_2+96033780_1_1" depart="0" maxspeed="20.00" length="802.30" shape="168.37,894.99 177.96,123.66"/>
         <lane id="96033774_2+96033780_1_2" depart="0" maxspeed="20.00" length="802.30" shape="171.67,895.03 181.26,123.75"/>
         <lane id="96033774_2+96033780_1_3" depart="0" maxspeed="20.00" length="802.30" shape="174.97,895.07 184.56,123.83"/>
      </lanes>
   </edge>
   <edge id="96033775_1" from="node96" to="node97" priority="70" type="" function="normal">
      <lanes>
         <lane id="96033775_1_0" depart="1" maxspeed="20.00" length="918.01" shape="93.69,916.95 49.17,0.24"/>
         <lane id="96033775_1_1" depart="0" maxspeed="20.00" length="918.01" shape="97.00,917.22 52.47,0.08"/>
      </lanes>
   </edge>
   <edge id="96033775_2" from="node98" to="node95" priority="70" type="" function="normal">
      <lanes>
         <lane id="96033775_2_0" depart="1" maxspeed="20.00" length="720.10" shape="49.18,816.86 88.37,97.81"/>
         <lane id="96033775_2_1" depart="0" maxspeed="20.00" length="720.10" shape="52.47,817.04 91.67,98.04"/>
      </lanes>
   </edge>
   <edge id="96033776_1" from="node96" to="node101" priority="75" type="" function="normal">
      <lanes>
         <lane id="96033776_1_0" depart="1" maxspeed="30.00" length="888.65" shape="93.72,916.96 104.50,28.55"/>
         <lane id="96033776_1_1" depart="0" maxspeed="30.00" length="888.65" shape="97.01,917.23 107.80,28.47"/>
      </lanes>
   </edge>
   <edge id="96033776_2" from="node99" to="node95" priority="75" type="" function="normal">
      <lanes>
         <lane id="96033776_2_0" depart="1" maxspeed="30.00" length="774.45" shape="104.84,872.30 94.96,98.11"/>
         <lane id="96033776_2_1" depart="0" maxspeed="30.00" length="774.45" shape="108.15,872.64 98.26,98.07"/>
      </lanes>
   </edge>
   <edge id="96033777_1" from="node98" to="node80" priority="70" type="" function="normal">
      <lanes>
         <lane id="96033777_1_0" depart="1" maxspeed="20.00" length="802.60" shape="49.14,816.86 -3.89,16.17"/>
         <lane id="96033777_1_1" depart="0" maxspeed="20.00" length="802.60" shape="52.46,817.04 -0.59,16.04"/>
      </lanes>
   </edge>
   <edge id="96033779_1" from="node99" to="node125" priority="75" type="" function="normal">
      <lanes>
         <lane id="96033779_1_0" depart="1" maxspeed="30.00" length="799.41" shape="104.87,872.31 165.89,75.24"/>
         <lane id="96033779_1_1" depart="0" maxspeed="30.00" length="799.41" shape="108.16,872.64 169.18,75.56"/>
      </lanes>
   </edge>
   <edge id="96033779_2" from="node126" to="node101" priority="75" type="" function="normal">
      <lanes>
         <lane id="96033779_2_0" depart="1" maxspeed="30.00" length="869.05" shape="171.65,895.03 106.97,28.53"/>
         <lane id="96033779_2_1" depart="0" maxspeed="30.00" length="869.05" shape="174.96,895.07 110.26,28.29"/>
      </lanes>
   </edge>
   <edge id="96033780_2" from="node120" to="node125" priority="70" type="" function="normal">
      <lanes>
         <lane id="96033780_2_0" depart="1" maxspeed="20.00" length="797.14" shape="182.80,872.68 172.63,75.67"/>
         <lane id="96033780_2_1" depart="0" maxspeed="20.00" length="797.14" shape="186.10,872.77 175.93,75.63"/>
      </lanes>
   </edge>
   <edge id="96033781_1" from="node118" to="node85" priority="70" type="" function="normal">
      <lanes>
         <lane id="96033781_1_0" depart="1" maxspeed="20.00" length="794.51" shape="160.51,805.79 116.68,12.65"/>
         <lane id="96033781_1_1" depart="0" maxspeed="20.00" length="794.51" shape="163.82,805.93 119.97,12.47"/>
      </lanes>
   </edge>
   <edge id="96033781_2" from="node117" to="node119" priority="70" type="" function="normal">
      <lanes>
         <lane id="96033781_2_0" depart="1" maxspeed="20.00" length="611.48" shape="116.01,682.94 155.77,72.80"/>
         <lane id="96033781_2_1" depart="0" maxspeed="20.00" length="611.48" shape="119.29,683.31 159.06,73.09"/>
      </lanes>
   </edge>
   <edge id="96033782_1" from="node66" to="node119" priority="70" type="" function="normal">
      <lanes>
         <lane id="96033782_1_0" depart="1" maxspeed="15.00" length="693.08" shape="193.16,765.61 163.64,73.12"/>
         <lane id="96033782_1_1" depart="0" maxspeed="15.00" length="693.08" shape="196.46,765.47 166.94,73.04"/>
      </lanes>
   </edge>
   <edge id="96033782_2" from="node118" to="node65" priority="70" type="" function="normal">
      <lanes>
         <lane id="96033782_2_0" depart="1" maxspeed="15.00" length="753.83" shape="160.53,805.79 191.75,52.63"/>
         <lane id="96033782_2_1" depart="0" maxspeed="15.00" length="753.83" shape="163.83,805.93 195.05,52.73"/>
      </lanes>
   </edge>
   <edge id="96033783_1" from="node120" to="node119" priority="70" type="" function="normal">
      <lanes>
         <lane id="96033783_1_0" depart="1" maxspeed="20.00" length="799.87" shape="182.80,872.68 162.40,73.15"/>
         <lane id="96033783_1_1" depart="0" maxspeed="20.00" length="799.87" shape="186.10,872.77 165.69,73.07"/>
      </lanes>
   </edge>
   <edge id="96033783_2" from="node118" to="node121" priority="70" type="" function="normal">
      <lanes>
         <lane id="96033783_2_0" depart="1" maxspeed="20.00" length="682.38" shape="160.53,805.79 179.38,123.70"/>
         <lane id="96033783_2_1" depart="0" maxspeed="20.00" length="682.38" shape="163.83,805.93 182.68,123.79"/>
      </lanes>
   </edge>
   <edge id="96033784_1" from="node67" to="node121" priority="70" type="" function="normal">
      <lanes>
         <lane id="96033784_1_0" depart="1" maxspeed="15.00" length="735.26" shape="204.72,858.79 185.96,123.79"/>
         <lane id="96033784_1_1" depart="0" maxspeed="15.00" length="735.26" shape="208.02,858.75 189.26,123.71"/>
      </lanes>
   </edge>
   <edge id="96033784_2" from="node120" to="node68" priority="70" type="" function="normal">
      <lanes>
         <lane id="96033784_2_0" depart="1" maxspeed="15.00" length="814.61" shape="182.80,872.68 203.58,58.38"/>
         <lane id="96033784_2_1" depart="0" maxspeed="15.00" length="814.61" shape="186.10,872.77 206.88,58.38"/>
      </lanes>
   </edge>
   <edge id="96033785_1" from="node67" to="node65" priority="70" type="" function="normal">
      <lanes>
         <lane id="96033785_1_0" depart="1" maxspeed="15.00" length="806.12" shape="204.90,858.79 194.61,52.74"/>
         <lane id="96033785_1_1" depart="0" maxspeed="15.00" length="806.12" shape="208.20,858.75 197.91,52.70"/>
      </lanes>
   </edge>
   <edge id="96033785_2+96033788_1" from="node66" to="node68" priority="70" type="" function="normal">
      <lanes>
         <lane id="96033785_2+96033788_1_0" depart="1" maxspeed="15.00" length="745.49" shape="187.34,783.56 198.48,-0.16"/>
         <lane id="96033785_2+96033788_1_1" depart="0" maxspeed="15.00" length="745.49" shape="190.64,783.60 201.78,-0.12"/>
         <lane id="96033785_2+96033788_1_2" depart="0" maxspeed="15.00" length="745.49" shape="194.20,765.56 204.24,58.38"/>
         <lane id="96033785_2+96033788_1_3" depart="0" maxspeed="15.00" length="745.49" shape="197.50,765.42 207.55,58.38"/>
      </lanes>
   </edge>
   <edge id="96033786_1" from="node77" to="node85" priority="70" type="" function="normal">
      <lanes>
         <lane id="96033786_1_0" depart="1" maxspeed="15.00" length="675.28" shape="193.90,683.42 117.39,12.61"/>
         <lane id="96033786_1_1" depart="0" maxspeed="15.00" length="675.28" shape="197.23,683.47 120.69,12.43"/>
      </lanes>
   </edge>
   <edge id="96033786_2" from="node117" to="node65" priority="70" type="" function="normal">
      <lanes>
         <lane id="96033786_2_0" depart="1" maxspeed="15.00" length="634.83" shape="116.02,682.94 187.95,52.20"/>
         <lane id="96033786_2_1" depart="0" maxspeed="15.00" length="634.83" shape="119.30,683.31 191.23,52.57"/>
      </lanes>
   </edge>
   <edge id="96033787_1" from="node117" to="node116" priority="70" type="" function="normal">
      <lanes>
         <lane id="96033787_1_0" depart="1" maxspeed="20.00" length="628.68" shape="115.89,682.92 44.69,58.67"/>
         <lane id="96033787_1_1" depart="0" maxspeed="20.00" length="628.68" shape="119.25,683.31 47.97,58.30"/>
      </lanes>
   </edge>
   <edge id="96033787_2" from="node115" to="node85" priority="70" type="" function="normal">
      <lanes>
         <lane id="96033787_2_0" depart="1" maxspeed="20.00" length="382.89" shape="44.98,388.82 113.67,12.24"/>
         <lane id="96033787_2_1" depart="0" maxspeed="20.00" length="382.89" shape="48.23,389.41 116.95,12.63"/>
      </lanes>
   </edge>
   <edge id="96033788_2+96033789_1" from="node71" to="node65" priority="70" type="" function="normal">
      <lanes>
         <lane id="96033788_2+96033789_1_0" depart="1" maxspeed="15.00" length="652.98" shape="198.48,705.95 188.16,52.22"/>
         <lane id="96033788_2+96033789_1_1" depart="0" maxspeed="15.00" length="652.98" shape="201.78,705.90 191.47,52.60"/>
         <lane id="96033788_2+96033789_1_2" depart="0" maxspeed="15.00" length="652.98" shape="205.06,704.59 194.77,52.74"/>
         <lane id="96033788_2+96033789_1_3" depart="0" maxspeed="15.00" length="652.98" shape="208.37,705.38 198.07,52.70"/>
      </lanes>
   </edge>
   <edge id="96033789_2+96033791_1" from="node77" to="node68" priority="70" type="" function="normal">
      <lanes>
         <lane id="96033789_2+96033791_1_0" depart="1" maxspeed="15.00" length="654.37" shape="187.34,683.31 198.48,-0.19"/>
         <lane id="96033789_2+96033791_1_1" depart="0" maxspeed="15.00" length="654.37" shape="190.64,683.37 201.78,-0.13"/>
         <lane id="96033789_2+96033791_1_2" depart="0" maxspeed="15.00" length="654.37" shape="193.94,683.42 204.12,58.38"/>
         <lane id="96033789_2+96033791_1_3" depart="0" maxspeed="15.00" length="654.37" shape="197.24,683.47 207.42,58.38"/>
      </lanes>
   </edge>
   <edge id="96033790_1+96033795_1" from="node70" to="node68" priority="70" type="" function="normal">
      <lanes>
         <lane id="96033790_1+96033795_1_0" depart="1" maxspeed="15.00" length="649.77" shape="361.53,690.28 211.88,57.97"/>
         <lane id="96033790_1+96033795_1_1" depart="0" maxspeed="15.00" length="649.77" shape="364.74,689.52 215.09,57.21"/>
         <lane id="96033790_1+96033795_1_2" depart="0" maxspeed="15.00" length="649.77" shape="367.96,688.76 218.30,56.45"/>
         <lane id="96033790_1+96033795_1_3" depart="0" maxspeed="15.00" length="649.77" shape="371.17,688.00 221.51,55.69"/>
      </lanes>
   </edge>
   <edge id="96033790_2" from="node71" to="node69" priority="70" type="" function="normal">
      <lanes>
         <lane id="96033790_2_0" depart="1" maxspeed="15.00" length="707.61" shape="205.21,704.63 368.19,16.01"/>
         <lane id="96033790_2_1" depart="0" maxspeed="15.00" length="707.61" shape="208.42,705.39 371.39,16.85"/>
      </lanes>
   </edge>
   <edge id="96033791_2" from="node76" to="node65" priority="70" type="" function="normal">
      <lanes>
         <lane id="96033791_2_0" depart="1" maxspeed="15.00" length="585.46" shape="205.05,637.65 194.86,52.74"/>
         <lane id="96033791_2_1" depart="0" maxspeed="15.00" length="585.46" shape="208.37,638.52 198.16,52.69"/>
      </lanes>
   </edge>
   <edge id="96033792_1" from="node76" to="node68" priority="70" type="" function="normal">
      <lanes>
         <lane id="96033792_1_0" depart="1" maxspeed="15.00" length="579.70" shape="205.07,637.66 205.07,58.38"/>
         <lane id="96033792_1_1" depart="0" maxspeed="15.00" length="579.70" shape="208.37,638.52 208.37,58.38"/>
      </lanes>
   </edge>
   <edge id="96033792_2+96033793_1" from="node78" to="node68" priority="70" type="" function="normal">
      <lanes>
         <lane id="96033792_2+96033793_1_0" depart="1" maxspeed="15.00" length="485.51" shape="198.47,514.70 198.47,0.00"/>
         <lane id="96033792_2+96033793_1_1" depart="0" maxspeed="15.00" length="485.51" shape="201.77,514.70 201.77,0.00"/>
         <lane id="96033792_2+96033793_1_2" depart="0" maxspeed="15.00" length="485.51" shape="205.07,514.70 205.07,58.38"/>
         <lane id="96033792_2+96033793_1_3" depart="0" maxspeed="15.00" length="485.51" shape="208.37,514.70 208.37,58.38"/>
      </lanes>
   </edge>
   <edge id="96033793_2" from="node74" to="node68" priority="70" type="" function="normal">
      <lanes>
         <lane id="96033793_2_0" depart="1" maxspeed="15.00" length="369.36" shape="205.07,427.74 205.07,58.38"/>
         <lane id="96033793_2_1" depart="0" maxspeed="15.00" length="369.36" shape="208.37,427.74 208.37,58.38"/>
      </lanes>
   </edge>
   <edge id="96033794_1" from="node74" to="node72" priority="70" type="" function="normal">
      <lanes>
         <lane id="96033794_1_0" depart="1" maxspeed="15.00" length="726.37" shape="215.06,433.19 204.01,1159.47"/>
         <lane id="96033794_1_1" depart="0" maxspeed="15.00" length="726.37" shape="211.76,433.14 200.72,1159.42"/>
      </lanes>
   </edge>
   <edge id="96033794_2" from="node73" to="node68" priority="70" type="" function="normal">
      <lanes>
         <lane id="96033794_2_0" depart="1" maxspeed="15.00" length="306.82" shape="194.37,335.72 205.08,-0.16"/>
         <lane id="96033794_2_1" depart="0" maxspeed="15.00" length="306.82" shape="197.67,335.83 206.51,58.38"/>
      </lanes>
   </edge>
   <edge id="96033795_2" from="node76" to="node69" priority="70" type="" function="normal">
      <lanes>
         <lane id="96033795_2_0" depart="1" maxspeed="15.00" length="642.69" shape="205.24,637.70 367.79,15.91"/>
         <lane id="96033795_2_1" depart="0" maxspeed="15.00" length="642.69" shape="208.43,638.53 370.99,16.74"/>
      </lanes>
   </edge>
   <edge id="96033796_1" from="node31" to="node69" priority="70" type="" function="normal">
      <lanes>
         <lane id="96033796_1_0" depart="1" maxspeed="15.00" length="697.52" shape="483.39,705.61 374.73,16.93"/>
         <lane id="96033796_1_1" depart="0" maxspeed="15.00" length="697.52" shape="486.75,705.72 377.99,16.41"/>
      </lanes>
   </edge>
   <edge id="96033796_2" from="node70" to="node32" priority="70" type="" function="normal">
      <lanes>
         <lane id="96033796_2_0" depart="1" maxspeed="15.00" length="653.22" shape="374.88,687.86 477.61,36.80"/>
         <lane id="96033796_2_1" depart="0" maxspeed="15.00" length="653.22" shape="378.14,688.37 479.04,48.95"/>
      </lanes>
   </edge>
   <edge id="96033812_2" from="node111" to="node30" priority="70" type="" function="normal">
      <lanes>
         <lane id="96033812_2_0" depart="1" maxspeed="15.00" length="1069.35" shape="717.34,1101.77 717.34,32.44"/>
         <lane id="96033812_2_1" depart="0" maxspeed="15.00" length="1069.35" shape="720.64,1101.83 720.64,32.44"/>
      </lanes>
   </edge>
   <edge id="96033829_2" from="node103" to="node114" priority="70" type="" function="normal">
      <lanes>
         <lane id="96033829_2_0" depart="1" maxspeed="15.00" length="1162.45" shape="1084.83,1162.27 1062.56,0.09"/>
         <lane id="96033829_2_1" depart="0" maxspeed="15.00" length="1162.45" shape="1088.13,1162.33 1065.86,0.03"/>
      </lanes>
   </edge>
   <edge id="96033830_1" from="node103" to="node63" priority="70" type="" function="normal">
      <lanes>
         <lane id="96033830_1_0" depart="1" maxspeed="15.00" length="1045.17" shape="1084.83,1162.27 1074.82,117.19"/>
         <lane id="96033830_1_1" depart="0" maxspeed="15.00" length="1045.17" shape="1088.13,1162.33 1078.12,117.16"/>
      </lanes>
   </edge>
   <edge id="96033830_2" from="node62" to="node104" priority="70" type="" function="normal">
      <lanes>
         <lane id="96033830_2_0" depart="1" maxspeed="15.00" length="802.24" shape="1073.90,802.05 1084.83,-0.07"/>
         <lane id="96033830_2_1" depart="0" maxspeed="15.00" length="802.24" shape="1077.20,802.18 1088.13,-0.02"/>
      </lanes>
   </edge>
   <edge id="96033831_1" from="node103" to="node45" priority="70" type="" function="normal">
      <lanes>
         <lane id="96033831_1_0" depart="1" maxspeed="15.00" length="1160.00" shape="1084.83,1162.27 1107.00,2.44"/>
         <lane id="96033831_1_1" depart="0" maxspeed="15.00" length="1160.00" shape="1088.13,1162.33 1110.30,2.57"/>
      </lanes>
   </edge>
   <edge id="96033832_1" from="node33" to="node65" priority="70" type="" function="normal">
      <lanes>
         <lane id="96033832_1_0" depart="1" maxspeed="15.00" length="843.84" shape="479.51,795.82 194.23,1.67"/>
         <lane id="96033832_1_1" depart="0" maxspeed="15.00" length="843.84" shape="482.62,794.71 197.34,0.56"/>
      </lanes>
   </edge>
   <edge id="96033832_2" from="node66" to="node32" priority="70" type="" function="normal">
      <lanes>
         <lane id="96033832_2_0" depart="1" maxspeed="15.00" length="791.82" shape="200.14,766.04 475.67,20.25"/>
         <lane id="96033832_2_1" depart="0" maxspeed="15.00" length="791.82" shape="203.24,767.19 476.52,27.47"/>
      </lanes>
   </edge>
   <edge id="96033833_1" from="node33" to="node32" priority="70" type="" function="normal">
      <lanes>
         <lane id="96033833_1_0" depart="1" maxspeed="15.00" length="609.67" shape="483.48,794.40 483.48,184.85"/>
         <lane id="96033833_1_1" depart="0" maxspeed="15.00" length="609.67" shape="486.78,794.64 486.78,184.85"/>
      </lanes>
   </edge>
   <edge id="96033833_2" from="node31" to="node32" priority="70" type="" function="normal">
      <lanes>
         <lane id="96033833_2_0" depart="1" maxspeed="15.00" length="520.81" shape="483.48,705.61 483.48,184.85"/>
         <lane id="96033833_2_1" depart="0" maxspeed="15.00" length="520.81" shape="486.78,705.72 486.78,184.85"/>
      </lanes>
   </edge>
   <edge id="96033834_1" from="node111" to="node128" priority="70" type="" function="normal">
      <lanes>
         <lane id="96033834_1_0" depart="1" maxspeed="15.00" length="1130.04" shape="713.73,1102.60 461.33,1.11"/>
         <lane id="96033834_1_1" depart="0" maxspeed="15.00" length="1130.04" shape="716.94,1101.86 464.55,0.37"/>
      </lanes>
   </edge>
   <edge id="96033834_2" from="node129" to="node30" priority="70" type="" function="normal">
      <lanes>
         <lane id="96033834_2_0" depart="1" maxspeed="15.00" length="1090.99" shape="461.34,1094.41 709.62,32.44"/>
         <lane id="96033834_2_1" depart="0" maxspeed="15.00" length="1090.99" shape="464.55,1095.16 713.01,32.44"/>
      </lanes>
   </edge>
   <edge id="96033835_1" from="node111" to="node108" priority="70" type="" function="normal">
      <lanes>
         <lane id="96033835_1_0" depart="1" maxspeed="15.00" length="1088.30" shape="717.02,1101.84 695.34,13.75"/>
         <lane id="96033835_1_1" depart="0" maxspeed="15.00" length="1088.30" shape="720.32,1101.76 698.64,13.68"/>
      </lanes>
   </edge>
   <edge id="96033835_2+96033837_1" from="node107" to="node30" priority="70" type="" function="normal">
      <lanes>
         <lane id="96033835_2+96033837_1_0" depart="1" maxspeed="15.00" length="978.15" shape="688.47,1017.34 710.03,32.44"/>
         <lane id="96033835_2+96033837_1_1" depart="0" maxspeed="15.00" length="978.15" shape="691.96,1008.82 713.33,32.44"/>
         <lane id="96033835_2+96033837_1_2" depart="0" maxspeed="15.00" length="978.15" shape="695.29,1007.33 716.63,32.44"/>
         <lane id="96033835_2+96033837_1_3" depart="0" maxspeed="15.00" length="978.15" shape="698.58,1007.95 719.93,32.44"/>
      </lanes>
   </edge>
   <edge id="96033836_1" from="node107" to="node121" priority="70" type="" function="normal">
      <lanes>
         <lane id="96033836_1_0" depart="1" maxspeed="15.00" length="1107.96" shape="690.45,1009.58 193.30,22.02"/>
         <lane id="96033836_1_1" depart="0" maxspeed="15.00" length="1107.96" shape="693.39,1008.10 194.16,16.39"/>
      </lanes>
   </edge>
   <edge id="96033836_2" from="node123" to="node108" priority="70" type="" function="normal">
      <lanes>
         <lane id="96033836_2_0" depart="1" maxspeed="15.00" length="1098.22" shape="190.50,990.13 688.67,11.39"/>
         <lane id="96033836_2_1" depart="0" maxspeed="15.00" length="1098.22" shape="193.45,991.63 691.61,12.89"/>
      </lanes>
   </edge>
   <edge id="96033837_2" from="node64" to="node108" priority="70" type="" function="normal">
      <lanes>
         <lane id="96033837_2_0" depart="1" maxspeed="15.00" length="883.75" shape="717.11,896.94 695.41,13.75"/>
         <lane id="96033837_2_1" depart="0" maxspeed="15.00" length="883.75" shape="720.42,897.46 698.71,13.68"/>
      </lanes>
   </edge>
   <edge id="96033838_1" from="node64" to="node68" priority="70" type="" function="normal">
      <lanes>
         <lane id="96033838_1_0" depart="1" maxspeed="15.00" length="1011.08" shape="712.73,899.37 215.24,19.28"/>
         <lane id="96033838_1_1" depart="0" maxspeed="15.00" length="1011.08" shape="715.60,897.74 217.99,17.45"/>
      </lanes>
   </edge>
   <edge id="96033838_2" from="node67" to="node30" priority="70" type="" function="normal">
      <lanes>
         <lane id="96033838_2_0" depart="1" maxspeed="15.00" length="972.40" shape="211.95,859.74 704.15,21.12"/>
         <lane id="96033838_2_1" depart="0" maxspeed="15.00" length="972.40" shape="214.80,861.42 707.00,22.79"/>
      </lanes>
   </edge>
   <edge id="96033839_1" from="node64" to="node30" priority="70" type="" function="normal">
      <lanes>
         <lane id="96033839_1_0" depart="1" maxspeed="15.00" length="864.77" shape="717.34,896.91 717.34,32.44"/>
         <lane id="96033839_1_1" depart="0" maxspeed="15.00" length="864.77" shape="720.64,897.52 720.64,32.44"/>
      </lanes>
   </edge>
   <edge id="96033839_2+96033841_1" from="node34" to="node30" priority="70" type="" function="normal">
      <lanes>
         <lane id="96033839_2+96033841_1_0" depart="1" maxspeed="15.00" length="766.92" shape="710.74,799.36 710.74,32.44"/>
         <lane id="96033839_2+96033841_1_1" depart="0" maxspeed="15.00" length="766.92" shape="714.04,799.36 714.04,32.44"/>
         <lane id="96033839_2+96033841_1_2" depart="0" maxspeed="15.00" length="766.92" shape="717.34,799.36 717.34,32.44"/>
         <lane id="96033839_2+96033841_1_3" depart="0" maxspeed="15.00" length="766.92" shape="720.64,799.36 720.64,32.44"/>
      </lanes>
   </edge>
   <edge id="96033840_1" from="node34" to="node32" priority="70" type="" function="normal">
      <lanes>
         <lane id="96033840_1_0" depart="1" maxspeed="15.00" length="830.51" shape="712.06,799.36 483.67,1.36"/>
         <lane id="96033840_1_1" depart="0" maxspeed="15.00" length="830.51" shape="715.49,799.36 486.84,0.45"/>
      </lanes>
   </edge>
   <edge id="96033840_2" from="node33" to="node30" priority="70" type="" function="normal">
      <lanes>
         <lane id="96033840_2_0" depart="1" maxspeed="15.00" length="798.75" shape="486.59,794.58 710.34,23.42"/>
         <lane id="96033840_2_1" depart="0" maxspeed="15.00" length="798.75" shape="489.76,795.50 711.16,32.44"/>
      </lanes>
   </edge>
   <edge id="96033841_2" from="node29" to="node30" priority="70" type="" function="normal">
      <lanes>
         <lane id="96033841_2_0" depart="1" maxspeed="15.00" length="682.29" shape="717.34,714.68 717.34,32.44"/>
         <lane id="96033841_2_1" depart="0" maxspeed="15.00" length="682.29" shape="720.64,714.80 720.64,32.44"/>
      </lanes>
   </edge>
   <edge id="96033842_1" from="node62" to="node30" priority="70" type="" function="normal">
      <lanes>
         <lane id="96033842_1_0" depart="1" maxspeed="15.00" length="875.06" shape="1067.56,804.08 717.75,1.98"/>
         <lane id="96033842_1_1" depart="0" maxspeed="15.00" length="875.06" shape="1070.58,802.76 720.78,0.66"/>
      </lanes>
   </edge>
   <edge id="96033842_2" from="node34" to="node63" priority="70" type="" function="normal">
      <lanes>
         <lane id="96033842_2_0" depart="1" maxspeed="15.00" length="850.11" shape="724.31,800.12 1065.20,18.46"/>
         <lane id="96033842_2_1" depart="0" maxspeed="15.00" length="850.11" shape="727.33,801.44 1066.11,24.64"/>
      </lanes>
   </edge>
   <edge id="96033843_1" from="node31" to="node28" priority="70" type="" function="normal">
      <lanes>
         <lane id="96033843_1_0" depart="1" maxspeed="15.00" length="661.82" shape="483.48,705.61 504.36,44.12"/>
         <lane id="96033843_1_1" depart="0" maxspeed="15.00" length="661.82" shape="486.78,705.72 507.65,44.23"/>
      </lanes>
   </edge>
   <edge id="96033843_2" from="node27" to="node32" priority="70" type="" function="normal">
      <lanes>
         <lane id="96033843_2_0" depart="1" maxspeed="15.00" length="423.55" shape="505.05,608.07 490.03,184.79"/>
         <lane id="96033843_2_1" depart="0" maxspeed="15.00" length="423.55" shape="508.34,607.96 493.33,184.68"/>
      </lanes>
   </edge>
   <edge id="96033844_1" from="node27" to="node25" priority="70" type="" function="normal">
      <lanes>
         <lane id="96033844_1_0" depart="1" maxspeed="15.00" length="583.75" shape="507.83,607.97 569.62,27.44"/>
         <lane id="96033844_1_1" depart="0" maxspeed="15.00" length="583.75" shape="511.13,608.20 572.90,27.79"/>
      </lanes>
   </edge>
   <edge id="96033844_2" from="node26" to="node28" priority="70" type="" function="normal">
      <lanes>
         <lane id="96033844_2_0" depart="1" maxspeed="15.00" length="495.52" shape="571.28,539.55 511.07,44.07"/>
         <lane id="96033844_2_1" depart="0" maxspeed="15.00" length="495.52" shape="573.69,531.99 514.35,43.67"/>
      </lanes>
   </edge>
   <edge id="96033845_1" from="node26" to="node68" priority="70" type="" function="normal">
      <lanes>
         <lane id="96033845_1_0" depart="1" maxspeed="15.00" length="630.94" shape="567.02,543.06 216.43,18.49"/>