<?xml version="1.0"?>

<!-- generated on Tue Feb 19 10:44:22 2013 by SUMO duarouter Version 0.12.3
<?xml version="1.0" encoding="iso-8859-1"?>

<configuration xmlns:xsi="http://www.w3.org/2001/XMLSchema-instance" xsi:noNamespaceSchemaLocation="http://sumo.sf.net/xsd/duarouterConfiguration.xsd">

    <input>
        <net-file value="/home/vanzi/src/gpsr/scence/afton_oak_houston/cut_area/afton_oak_area3.net.xml"/>
        <flow-definition value="/home/vanzi/src/gpsr/scence/afton_oak_houston/cut_area/40_3.flow.xml"/>
    </input>

    <output>
        <output-file value="/home/vanzi/src/gpsr/scence/afton_oak_houston/cut_area/afton_oak_area3.rou.xml"/>
    </output>

    <processing>
        <continue-on-unbuild value="true"/>
    </processing>

    <time>
        <begin value="0"/>
        <end value="300"/>
    </time>

    <report>
        <verbose value="true"/>
    </report>

</configuration>
-->

<routes>
    <vehicle id="flow0_0" depart="0.00">
        <route edges="96033765_1 96033774_1 96033780_1 96033783_1 96033782_2 96033788_1 96033790_2 96033796_2 96033843_1 96033844_1 96033846_1 96033850_1 96033947_1 96033955_1 96033958_1 96033961_1 96033961_2"/>
    </vehicle>
    <vehicle id="flow1_0" depart="0.00">
        <route edges="96033902_1 96033869_2 96033771_1 96352233_2 96352232_2 96352231_2 96552260_2 96353024_2 96353027_2 96353027_1"/>
    </vehicle>
    <vehicle id="flow2_0" depart="0.00">
        <route edges="96033779_1 96033780_1 96033783_1 96033782_2 96033832_2 96033840_2 96033842_2 96033855_2 96033831_2"/>
    </vehicle>
    <vehicle id="flow0_1" depart="8.00">
        <route edges="96033765_1 96033774_1 96033780_1 96033783_1 96033782_2 96033788_1 96033790_2 96033796_2 96033843_1 96033844_1 96033846_1 96033850_1 96033947_1 96033955_1 96033958_1 96033961_1 96033961_2"/>
    </vehicle>
    <vehicle id="flow1_1" depart="8.00">
        <route edges="96033902_1 96033869_2 96033771_1 96352233_2 96352232_2 96352231_2 96552260_2 96353024_2 96353027_2 96353027_1"/>
    </vehicle>
    <vehicle id="flow2_1" depart="8.00">
        <route edges="96033779_1 96033780_1 96033783_1 96033782_2 96033832_2 96033840_2 96033842_2 96033855_2 96033831_2"/>
    </vehicle>
    <vehicle id="flow0_2" depart="15.00">
        <route edges="96033765_1 96033774_1 96033780_1 96033783_1 96033782_2 96033788_1 96033790_2 96033796_2 96033843_1 96033844_1 96033846_1 96033850_1 96033947_1 96033955_1 96033958_1 96033961_1 96033961_2"/>
    </vehicle>
    <vehicle id="flow1_2" depart="15.00">
        <route edges="96033902_1 96033869_2 96033771_1 96352233_2 96352232_2 96352231_2 96552260_2 96353024_2 96353027_2 96353027_1"/>
    </vehicle>
    <vehicle id="flow2_2" depart="15.00">
        <route edges="96033779_1 96033780_1 96033783_1 96033782_2 96033832_2 96033840_2 96033842_2 96033855_2 96033831_2"/>
    </vehicle>
    <vehicle id="flow0_3" depart="23.00">
        <route edges="96033765_1 96033774_1 96033780_1 96033783_1 96033782_2 96033788_1 96033790_2 96033796_2 96033843_1 96033844_1 96033846_1 96033850_1 96033947_1 96033955_1 96033958_1 96033961_1 96033961_2"/>
    </vehicle>
    <vehicle id="flow1_3" depart="23.00">
        <route edges="96033902_1 96033869_2 96033771_1 96352233_2 96352232_2 96352231_2 96552260_2 96353024_2 96353027_2 96353027_1"/>
    </vehicle>
    <vehicle id="flow2_3" depart="23.00">
        <route edges="96033779_1 96033780_1 96033783_1 96033782_2 96033832_2 96033840_2 96033842_2 96033855_2 96033831_2"/>
    </vehicle>
    <vehicle id="flow0_4" depart="30.00">
        <route edges="96033765_1 96033774_1 96033780_1 96033783_1 96033782_2 96033788_1 96033790_2 96033796_2 96033843_1 96033844_1 96033846_1 96033850_1 96033947_1 96033955_1 96033958_1 96033961_1 96033961_2"/>
    </vehicle>
    <vehicle id="flow1_4" depart="30.00">
        <route edges="96033902_1 96033869_2 96033771_1 96352233_2 96352232_2 96352231_2 96552260_2 96353024_2 96353027_2 96353027_1"/>
    </vehicle>
    <vehicle id="flow2_4" depart="30.00">
        <route edges="96033779_1 96033780_1 96033783_1 96033782_2 96033832_2 96033840_2 96033842_2 96033855_2 96033831_2"/>
    </vehicle>
    <vehicle id="flow0_5" depart="38.00">
        <route edges="96033765_1 96033774_1 96033780_1 96033783_1 96033782_2 96033788_1 96033790_2 96033796_2 96033843_1 96033844_1 96033846_1 96033850_1 96033947_1 96033955_1 96033958_1 96033961_1 96033961_2"/>
    </vehicle>
    <vehicle id="flow1_5" depart="38.00">
        <route edges="96033902_1 96033869_2 96033771_1 96352233_2 96352232_2 96352231_2 96552260_2 96353024_2 96353027_2 96353027_1"/>
    </vehicle>
    <vehicle id="flow2_5" depart="38.00">
        <route edges="96033779_1 96033780_1 96033783_1 96033782_2 96033832_2 96033840_2 96033842_2 96033855_2 96033831_2"/>
    </vehicle>
    <vehicle id="flow0_6" depart="45.00">
        <route edges="96033765_1 96033774_1 96033780_1 96033783_1 96033782_2 96033788_1 96033790_2 96033796_2 96033843_1 96033844_1 96033846_1 96033850_1 96033947_1 96033955_1 96033958_1 96033961_1 96033961_2"/>
    </vehicle>
    <vehicle id="flow1_6" depart="45.00">
        <route edges="96033902_1 96033869_2 96033771_1 96352233_2 96352232_2 96352231_2 96552260_2 96353024_2 96353027_2 96353027_1"/>
    </vehicle>
    <vehicle id="flow2_6" depart="45.00">
        <route edges="96033779_1 96033780_1 96033783_1 96033782_2 96033832_2 96033840_2 96033842_2 96033855_2 96033831_2"/>
    </vehicle>
    <vehicle id="flow0_7" depart="53.00">
        <route edges="96033765_1 96033774_1 96033780_1 96033783_1 96033782_2 96033788_1 96033790_2 96033796_2 96033843_1 96033844_1 96033846_1 96033850_1 96033947_1 96033955_1 96033958_1 96033961_1 96033961_2"/>
    </vehicle>
    <vehicle id="flow1_7" depart="53.00">
        <route edges="96033902_1 96033869_2 96033771_1 96352233_2 96352232_2 96352231_2 96552260_2 96353024_2 96353027_2 96353027_1"/>
    </vehicle>
    <vehicle id="flow2_7" depart="53.00">
        <route edges="96033779_1 96033780_1 96033783_1 96033782_2 96033832_2 96033840_2 96033842_2 96033855_2 96033831_2"/>
    </vehicle>
    <vehicle id="flow0_8" depart="60.00">
        <route edges="96033765_1 96033774_1 96033780_1 96033783_1 96033782_2 96033788_1 96033790_2 96033796_2 96033843_1 96033844_1 96033846_1 96033850_1 96033947_1 96033955_1 96033958_1 96033961_1 96033961_2"/>
    </vehicle>
    <vehicle id="flow1_8" depart="60.00">
        <route edges="96033902_1 96033869_2 96033771_1 96352233_2 96352232_2 96352231_2 96552260_2 96353024_2 96353027_2 96353027_1"/>
    </vehicle>
    <vehicle id="flow2_8" depart="60.00">
        <route edges="96033779_1 96033780_1 96033783_1 96033782_2 96033832_2 96033840_2 96033842_2 96033855_2 96033831_2"/>
    </vehicle>
    <vehicle id="flow0_9" depart="68.00">
        <route edges="96033765_1 96033774_1 96033780_1 96033783_1 96033782_2 96033788_1 96033790_2 96033796_2 96033843_1 96033844_1 96033846_1 96033850_1 96033947_1 96033955_1 96033958_1 96033961_1 96033961_2"/>
    </vehicle>
    <vehicle id="flow1_9" depart="68.00">
        <route edges="96033902_1 96033869_2 96033771_1 96352233_2 96352232_2 96352231_2 96552260_2 96353024_2 96353027_2 96353027_1"/>
    </vehicle>
    <vehicle id="flow2_9" depart="68.00">
        <route edges="96033779_1 96033780_1 96033783_1 96033782_2 96033832_2 96033840_2 96033842_2 96033855_2 96033831_2"/>
    </vehicle>
    <vehicle id="flow0_10" depart="75.00">
        <route edges="96033765_1 96033774_1 96033780_1 96033783_1 96033782_2 96033788_1 96033790_2 96033796_2 96033843_1 96033844_1 96033846_1 96033850_1 96033947_1 96033955_1 96033958_1 96033961_1 96033961_2"/>
    </vehicle>
    <vehicle id="flow1_10" depart="75.00">
        <route edges="96033902_1 96033869_2 96033771_1 96352233_2 96352232_2 96352231_2 96552260_2 96353024_2 96353027_2 96353027_1"/>
    </vehicle>
    <vehicle id="flow2_10" depart="75.00">
        <route edges="96033779_1 96033780_1 96033783_1 96033782_2 96033832_2 96033840_2 96033842_2 96033855_2 96033831_2"/>
    </vehicle>
    <vehicle id="flow0_11" depart="83.00">
        <route edges="96033765_1 96033774_1 96033780_1 96033783_1 96033782_2 96033788_1 96033790_2 96033796_2 96033843_1 96033844_1 96033846_1 96033850_1 96033947_1 96033955_1 96033958_1 96033961_1 96033961_2"/>
    </vehicle>
    <vehicle id="flow1_11" depart="83.00">
        <route edges="96033902_1 96033869_2 96033771_1 96352233_2 96352232_2 96352231_2 96552260_2 96353024_2 96353027_2 96353027_1"/>
    </vehicle>
    <vehicle id="flow2_11" depart="83.00">
        <route edges="96033779_1 96033780_1 96033783_1 96033782_2 96033832_2 96033840_2 96033842_2 96033855_2 96033831_2"/>
    </vehicle>
    <vehicle id="flow0_12" depart="90.00">
        <route edges="96033765_1 96033774_1 96033780_1 96033783_1 96033782_2 96033788_1 96033790_2 96033796_2 96033843_1 96033844_1 96033846_1 96033850_1 96033947_1 96033955_1 96033958_1 96033961_1 96033961_2"/>
    </vehicle>
    <vehicle id="flow1_12" depart="90.00">
        <route edges="96033902_1 96033869_2 96033771_1 96352233_2 96352232_2 96352231_2 96552260_2 96353024_2 96353027_2 96353027_1"/>
    </vehicle>
    <vehicle id="flow2_12" depart="90.00">
        <route edges="96033779_1 96033780_1 96033783_1 96033782_2 96033832_2 96033840_2 96033842_2 96033855_2 96033831_2"/>
    </vehicle>
    <vehicle id="flow0_13" depart="98.00">
        <route edges="96033765_1 96033774_1 96033780_1 96033783_1 96033782_2 96033788_1 96033790_2 96033796_2 96033843_1 96033844_1 96033846_1 96033850_1 96033947_1 96033955_1 96033958_1 96033961_1 96033961_2"/>
    </vehicle>
    <vehicle id="flow1_13" depart="98.00">
        <route edges="96033902_1 96033869_2 96033771_1 96352233_2 96352232_2 96352231_2 96552260_2 96353024_2 96353027_2 96353027_1"/>
    </vehicle>
    <vehicle id="flow2_13" depart="98.00">
        <route edges="96033779_1 96033780_1 96033783_1 96033782_2 96033832_2 96033840_2 96033842_2 96033855_2 96033831_2"/>
    </vehicle>
    <vehicle id="flow0_14" depart="105.00">
        <route edges="96033765_1 96033774_1 96033780_1 96033783_1 96033782_2 96033788_1 96033790_2 96033796_2 96033843_1 96033844_1 96033846_1 96033850_1 96033947_1 96033955_1 96033958_1 96033961_1 96033961_2"/>
    </vehicle>
    <vehicle id="flow1_14" depart="105.00">
        <route edges="96033902_1 96033869_2 96033771_1 96352233_2 96352232_2 96352231_2 96552260_2 96353024_2 96353027_2 96353027_1"/>
    </vehicle>
    <vehicle id="flow2_14" depart="105.00">
        <route edges="96033779_1 96033780_1 96033783_1 96033782_2 96033832_2 96033840_2 96033842_2 96033855_2 96033831_2"/>
    </vehicle>
    <vehicle id="flow0_15" depart="113.00">
        <route edges="96033765_1 96033774_1 96033780_1 96033783_1 96033782_2 96033788_1 96033790_2 96033796_2 96033843_1 96033844_1 96033846_1 96033850_1 96033947_1 96033955_1 96033958_1 96033961_1 96033961_2"/>
    </vehicle>
    <vehicle id="flow1_15" depart="113.00">
        <route edges="96033902_1 96033869_2 96033771_1 96352233_2 96352232_2 96352231_2 96552260_2 96353024_2 96353027_2 96353027_1"/>
    </vehicle>
    <vehicle id="flow2_15" depart="113.00">
        <route edges="96033779_1 96033780_1 96033783_1 96033782_2 96033832_2 96033840_2 96033842_2 96033855_2 96033831_2"/>
    </vehicle>
    <vehicle id="flow0_16" depart="120.00">
        <route edges="96033765_1 96033774_1 96033780_1 96033783_1 96033782_2 96033788_1 96033790_2 96033796_2 96033843_1 96033844_1 96033846_1 96033850_1 96033947_1 96033955_1 96033958_1 96033961_1 96033961_2"/>
    </vehicle>
    <vehicle id="flow1_16" depart="120.00">
        <route edges="96033902_1 96033869_2 96033771_1 96352233_2 96352232_2 96352231_2 96552260_2 96353024_2 96353027_2 96353027_1"/>
    </vehicle>
    <vehicle id="flow2_16" depart="120.00">
        <route edges="96033779_1 96033780_1 96033783_1 96033782_2 96033832_2 96033840_2 96033842_2 96033855_2 96033831_2"/>
    </vehicle>
    <vehicle id="flow0_17" depart="128.00">
        <route edges="96033765_1 96033774_1 96033780_1 96033783_1 96033782_2 96033788_1 96033790_2 96033796_2 96033843_1 96033844_1 96033846_1 96033850_1 96033947_1 96033955_1 96033958_1 96033961_1 96033961_2"/>
    </vehicle>
    <vehicle id="flow1_17" depart="128.00">
        <route edges="96033902_1 96033869_2 96033771_1 96352233_2 96352232_2 96352231_2 96552260_2 96353024_2 96353027_2 96353027_1"/>
    </vehicle>
    <vehicle id="flow2_17" depart="128.00">
        <route edges="96033779_1 96033780_1 96033783_1 96033782_2 96033832_2 96033840_2 96033842_2 96033855_2 96033831_2"/>
    </vehicle>
    <vehicle id="flow0_18" depart="135.00">
        <route edges="96033765_1 96033774_1 96033780_1 96033783_1 96033782_2 96033788_1 96033790_2 96033796_2 96033843_1 96033844_1 96033846_1 96033850_1 96033947_1 96033955_1 96033958_1 96033961_1 96033961_2"/>
    </vehicle>
    <vehicle id="flow1_18" depart="135.00">
        <route edges="96033902_1 96033869_2 96033771_1 96352233_2 96352232_2 96352231_2 96552260_2 96353024_2 96353027_2 96353027_1"/>
    </vehicle>
    <vehicle id="flow2_18" depart="135.00">
        <route edges="96033779_1 96033780_1 96033783_1 96033782_2 96033832_2 96033840_2 96033842_2 96033855_2 96033831_2"/>
    </vehicle>
    <vehicle id="flow0_19" depart="143.00">
        <route edges="96033765_1 96033774_1 96033780_1 96033783_1 96033782_2 96033788_1 96033790_2 96033796_2 96033843_1 96033844_1 96033846_1 96033850_1 96033947_1 96033955_1 96033958_1 96033961_1 96033961_2"/>
    </vehicle>
    <vehicle id="flow1_19" depart="143.00">
        <route edges="96033902_1 96033869_2 96033771_1 96352233_2 96352232_2 96352231_2 96552260_2 96353024_2 96353027_2 96353027_1"/>
    </vehicle>
    <vehicle id="flow2_19" depart="143.00">
        <route edges="96033779_1 96033780_1 96033783_1 96033782_2 96033832_2 96033840_2 96033842_2 96033855_2 96033831_2"/>
    </vehicle>
    <vehicle id="flow0_20" depart="150.00">
        <route edges="96033765_1 96033774_1 96033780_1 96033783_1 96033782_2 96033788_1 96033790_2 96033796_2 96033843_1 96033844_1 96033846_1 96033850_1 96033947_1 96033955_1 96033958_1 96033961_1 96033961_2"/>
    </vehicle>
    <vehicle id="flow1_20" depart="150.00">
        <route edges="96033902_1 96033869_2 96033771_1 96352233_2 96352232_2 96352231_2 96552260_2 96353024_2 96353027_2 96353027_1"/>
    </vehicle>
    <vehicle id="flow2_20" depart="150.00">
        <route edges="96033779_1 96033780_1 96033783_1 96033782_2 96033832_2 96033840_2 96033842_2 96033855_2 96033831_2"/>
    </vehicle>
    <vehicle id="flow0_21" depart="158.00">
        <route edges="96033765_1 96033774_1 96033780_1 96033783_1 96033782_2 96033788_1 96033790_2 96033796_2 96033843_1 96033844_1 96033846_1 96033850_1 96033947_1 96033955_1 96033958_1 96033961_1 96033961_2"/>
    </vehicle>
    <vehicle id="flow1_21" depart="158.00">
        <route edges="96033902_1 96033869_2 96033771_1 96352233_2 96352232_2 96352231_2 96552260_2 96353024_2 96353027_2 96353027_1"/>
    </vehicle>
    <vehicle id="flow2_21" depart="158.00">
        <route edges="96033779_1 96033780_1 96033783_1 96033782_2 96033832_2 96033840_2 96033842_2 96033855_2 96033831_2"/>
    </vehicle>
    <vehicle id="flow0_22" depart="165.00">
        <route edges="96033765_1 96033774_1 96033780_1 96033783_1 96033782_2 96033788_1 96033790_2 96033796_2 96033843_1 96033844_1 96033846_1 96033850_1 96033947_1 96033955_1 96033958_1 96033961_1 96033961_2"/>
    </vehicle>
    <vehicle id="flow1_22" depart="165.00">
        <route edges="96033902_1 96033869_2 96033771_1 96352233_2 96352232_2 96352231_2 96552260_2 96353024_2 96353027_2 96353027_1"/>
    </vehicle>
    <vehicle id="flow2_22" depart="165.00">
        <route edges="96033779_1 96033780_1 96033783_1 96033782_2 96033832_2 96033840_2 96033842_2 96033855_2 96033831_2"/>
    </vehicle>
    <vehicle id="flow0_23" depart="173.00">
        <route edges="96033765_1 96033774_1 96033780_1 96033783_1 96033782_2 96033788_1 96033790_2 96033796_2 96033843_1 96033844_1 96033846_1 96033850_1 96033947_1 96033955_1 96033958_1 96033961_1 96033961_2"/>
    </vehicle>
    <vehicle id="flow1_23" depart="173.00">
        <route edges="96033902_1 96033869_2 96033771_1 96352233_2 96352232_2 96352231_2 96552260_2 96353024_2 96353027_2 96353027_1"/>
    </vehicle>
    <vehicle id="flow2_23" depart="173.00">
        <route edges="96033779_1 96033780_1 96033783_1 96033782_2 96033832_2 96033840_2 96033842_2 96033855_2 96033831_2"/>
    </vehicle>
    <vehicle id="flow0_24" depart="180.00">
        <route edges="96033765_1 96033774_1 96033780_1 96033783_1 96033782_2 96033788_1 96033790_2 96033796_2 96033843_1 96033844_1 96033846_1 96033850_1 96033947_1 96033955_1 96033958_1 96033961_1 96033961_2"/>
    </vehicle>
    <vehicle id="flow1_24" depart="180.00">
        <route edges="96033902_1 96033869_2 96033771_1 96352233_2 96352232_2 96352231_2 96552260_2 96353024_2 96353027_2 96353027_1"/>
    </vehicle>
    <vehicle id="flow2_24" depart="180.00">
        <route edges="96033779_1 96033780_1 96033783_1 96033782_2 96033832_2 96033840_2 96033842_2 96033855_2 96033831_2"/>
    </vehicle>
    <vehicle id="flow0_25" depart="188.00">
        <route edges="96033765_1 96033774_1 96033780_1 96033783_1 96033782_2 96033788_1 96033790_2 96033796_2 96033843_1 96033844_1 96033846_1 96033850_1 96033947_1 96033955_1 96033958_1 96033961_1 96033961_2"/>
    </vehicle>
    <vehicle id="flow1_25" depart="188.00">
        <route edges="96033902_1 96033869_2 96033771_1 96352233_2 96352232_2 96352231_2 96552260_2 96353024_2 96353027_2 96353027_1"/>
    </vehicle>
    <vehicle id="flow2_25" depart="188.00">
        <route edges="96033779_1 96033780_1 96033783_1 96033782_2 96033832_2 96033840_2 96033842_2 96033855_2 96033831_2"/>
    </vehicle>
    <vehicle id="flow0_26" depart="195.00">
        <route edges="96033765_1 96033774_1 96033780_1 96033783_1 96033782_2 96033788_1 96033790_2 96033796_2 96033843_1 96033844_1 96033846_1 96033850_1 96033947_1 96033955_1 96033958_1 96033961_1 96033961_2"/>
    </vehicle>
    <vehicle id="flow1_26" depart="195.00">
        <route edges="96033902_1 96033869_2 96033771_1 96352233_2 96352232_2 96352231_2 96552260_2 96353024_2 96353027_2 96353027_1"/>
    </vehicle>
    <vehicle id="flow2_26" depart="195.00">
        <route edges="96033779_1 96033780_1 96033783_1 96033782_2 96033832_2 96033840_2 96033842_2 96033855_2 96033831_2"/>
    </vehicle>
    <vehicle id="flow0_27" depart="203.00">
        <route edges="96033765_1 96033774_1 96033780_1 96033783_1 96033782_2 96033788_1 96033790_2 96033796_2 96033843_1 96033844_1 96033846_1 96033850_1 96033947_1 96033955_1 96033958_1 96033961_1 96033961_2"/>
    </vehicle>
    <vehicle id="flow1_27" depart="203.00">
        <route edges="96033902_1 96033869_2 96033771_1 96352233_2 96352232_2 96352231_2 96552260_2 96353024_2 96353027_2 96353027_1"/>
    </vehicle>
    <vehicle id="flow2_27" depart="203.00">
        <route edges="96033779_1 96033780_1 96033783_1 96033782_2 96033832_2 96033840_2 96033842_2 96033855_2 96033831_2"/>
    </vehicle>
    <vehicle id="flow0_28" depart="210.00">
        <route edges="96033765_1 96033774_1 96033780_1 96033783_1 96033782_2 96033788_1 96033790_2 96033796_2 96033843_1 96033844_1 96033846_1 96033850_1 96033947_1 96033955_1 96033958_1 96033961_1 96033961_2"/>
    </vehicle>
    <vehicle id="flow1_28" depart="210.00">
        <route edges="96033902_1 96033869_2 96033771_1 96352233_2 96352232_2 96352231_2 96552260_2 96353024_2 96353027_2 96353027_1"/>
    </vehicle>
    <vehicle id="flow2_28" depart="210.00">
        <route edges="96033779_1 96033780_1 96033783_1 96033782_2 96033832_2 96033840_2 96033842_2 96033855_2 96033831_2"/>
    </vehicle>
    <vehicle id="flow0_29" depart="218.00">
        <route edges="96033765_1 96033774_1 96033780_1 96033783_1 96033782_2 96033788_1 96033790_2 96033796_2 96033843_1 96033844_1 96033846_1 96033850_1 96033947_1 96033955_1 96033958_1 96033961_1 96033961_2"/>
    </vehicle>
    <vehicle id="flow1_29" depart="218.00">
        <route edges="96033902_1 96033869_2 96033771_1 96352233_2 96352232_2 96352231_2 96552260_2 96353024_2 96353027_2 96353027_1"/>
    </vehicle>
    <vehicle id="flow2_29" depart="218.00">
        <route edges="96033779_1 96033780_1 96033783_1 96033782_2 96033832_2 96033840_2 96033842_2 96033855_2 96033831_2"/>
    </vehicle>
    <vehicle id="flow0_30" depart="225.00">
        <route edges="96033765_1 96033774_1 96033780_1 96033783_1 96033782_2 96033788_1 96033790_2 96033796_2 96033843_1 96033844_1 96033846_1 96033850_1 96033947_1 96033955_1 96033958_1 96033961_1 96033961_2"/>
    </vehicle>
    <vehicle id="flow1_30" depart="225.00">
        <route edges="96033902_1 96033869_2 96033771_1 96352233_2 96352232_2 96352231_2 96552260_2 96353024_2 96353027_2 96353027_1"/>
    </vehicle>
    <vehicle id="flow2_30" depart="225.00">
        <route edges="96033779_1 96033780_1 96033783_1 96033782_2 96033832_2 96033840_2 96033842_2 96033855_2 96033831_2"/>
    </vehicle>
    <vehicle id="flow0_31" depart="233.00">
        <route edges="96033765_1 96033774_1 96033780_1 96033783_1 96033782_2 96033788_1 96033790_2 96033796_2 96033843_1 96033844_1 96033846_1 96033850_1 96033947_1 96033955_1 96033958_1 96033961_1 96033961_2"/>
    </vehicle>
    <vehicle id="flow1_31" depart="233.00">
        <route edges="96033902_1 96033869_2 96033771_1 96352233_2 96352232_2 96352231_2 96552260_2 96353024_2 96353027_2 96353027_1"/>
    </vehicle>
    <vehicle id="flow2_31" depart="233.00">
        <route edges="96033779_1 96033780_1 96033783_1 96033782_2 96033832_2 96033840_2 96033842_2 96033855_2 96033831_2"/>
    </vehicle>
    <vehicle id="flow0_32" depart="240.00">
        <route edges="96033765_1 96033774_1 96033780_1 96033783_1 96033782_2 96033788_1 96033790_2 96033796_2 96033843_1 96033844_1 96033846_1 96033850_1 96033947_1 96033955_1 96033958_1 96033961_1 96033961_2"/>
    </vehicle>
    <vehicle id="flow1_32" depart="240.00">
        <route edges="96033902_1 96033869_2 96033771_1 96352233_2 96352232_2 96352231_2 96552260_2 96353024_2 96353027_2 96353027_1"/>
    </vehicle>
    <vehicle id="flow2_32" depart="240.00">
        <route edges="96033779_1 96033780_1 96033783_1 96033782_2 96033832_2 96033840_2 96033842_2 96033855_2 96033831_2"/>
    </vehicle>
    <vehicle id="flow0_33" depart="248.00">
        <route edges="96033765_1 96033774_1 96033780_1 96033783_1 96033782_2 96033788_1 96033790_2 96033796_2 96033843_1 96033844_1 96033846_1 96033850_1 96033947_1 96033955_1 96033958_1 96033961_1 96033961_2"/>
    </vehicle>
    <vehicle id="flow1_33" depart="248.00">
        <route edges="96033902_1 96033869_2 96033771_1 96352233_2 96352232_2 96352231_2 96552260_2 96353024_2 96353027_2 96353027_1"/>
    </vehicle>
    <vehicle id="flow2_33" depart="248.00">
        <route edges="96033779_1 96033780_1 96033783_1 96033782_2 96033832_2 96033840_2 96033842_2 96033855_2 96033831_2"/>
    </vehicle>
    <vehicle id="flow0_34" depart="255.00">
        <route edges="96033765_1 96033774_1 96033780_1 96033783_1 96033782_2 96033788_1 96033790_2 96033796_2 96033843_1 96033844_1 96033846_1 96033850_1 96033947_1 96033955_1 96033958_1 96033961_1 96033961_2"/>
    </vehicle>
    <vehicle id="flow1_34" depart="255.00">
        <route edges="96033902_1 96033869_2 96033771_1 96352233_2 96352232_2 96352231_2 96552260_2 96353024_2 96353027_2 96353027_1"/>
    </vehicle>
    <vehicle id="flow2_34" depart="255.00">
        <route edges="96033779_1 96033780_1 96033783_1 96033782_2 96033832_2 96033840_2 96033842_2 96033855_2 96033831_2"/>
    </vehicle>
    <vehicle id="flow0_35" depart="263.00">
        <route edges="96033765_1 96033774_1 96033780_1 96033783_1 96033782_2 96033788_1 96033790_2 96033796_2 96033843_1 96033844_1 96033846_1 96033850_1 96033947_1 96033955_1 96033958_1 96033961_1 96033961_2"/>
    </vehicle>
    <vehicle id="flow1_35" depart="263.00">
        <route edges="96033902_1 96033869_2 96033771_1 96352233_2 96352232_2 96352231_2 96552260_2 96353024_2 96353027_2 96353027_1"/>
    </vehicle>
    <vehicle id="flow2_35" depart="263.00">
        <route edges="96033779_1 96033780_1 96033783_1 96033782_2 96033832_2 96033840_2 96033842_2 96033855_2 96033831_2"/>
    </vehicle>
    <vehicle id="flow0_36" depart="270.00">
        <route edges="96033765_1 96033774_1 96033780_1 96033783_1 96033782_2 96033788_1 96033790_2 96033796_2 96033843_1 96033844_1 96033846_1 96033850_1 96033947_1 96033955_1 96033958_1 96033961_1 96033961_2"/>
    </vehicle>
    <vehicle id="flow1_36" depart="270.00">
        <route edges="96033902_1 96033869_2 96033771_1 96352233_2 96352232_2 96352231_2 96552260_2 96353024_2 96353027_2 96353027_1"/>
    </vehicle>
    <vehicle id="flow2_36" depart="270.00">
        <route edges="96033779_1 96033780_1 96033783_1 96033782_2 96033832_2 96033840_2 96033842_2 96033855_2 96033831_2"/>
    </vehicle>
    <vehicle id="flow0_37" depart="278.00">
        <route edges="96033765_1 96033774_1 96033780_1 96033783_1 96033782_2 96033788_1 96033790_2 96033796_2 96033843_1 96033844_1 96033846_1 96033850_1 96033947_1 96033955_1 96033958_1 96033961_1 96033961_2"/>
    </vehicle>
    <vehicle id="flow1_37" depart="278.00">
        <route edges="96033902_1 96033869_2 96033771_1 96352233_2 96352232_2 96352231_2 96552260_2 96353024_2 96353027_2 96353027_1"/>
    </vehicle>
    <vehicle id="flow2_37" depart="278.00">
        <route edges="96033779_1 96033780_1 96033783_1 96033782_2 96033832_2 96033840_2 96033842_2 96033855_2 96033831_2"/>
    </vehicle>
    <vehicle id="flow0_38" depart="285.00">
        <route edges="96033765_1 96033774_1 96033780_1 96033783_1 96033782_2 96033788_1 96033790_2 96033796_2 96033843_1 96033844_1 96033846_1 96033850_1 96033947_1 96033955_1 96033958_1 96033961_1 96033961_2"/>
    </vehicle>
    <vehicle id="flow1_38" depart="285.00">
        <route edges="96033902_1 96033869_2 96033771_1 96352233_2 96352232_2 96352231_2 96552260_2 96353024_2 96353027_2 96353027_1"/>
    </vehicle>
    <vehicle id="flow2_38" depart="285.00">
        <route edges="96033779_1 96033780_1 96033783_1 96033782_2 96033832_2 96033840_2 96033842_2 96033855_2 96033831_2"/>
    </vehicle>
    <vehicle id="flow0_39" depart="293.00">
        <route edges="96033765_1 96033774_1 96033780_1 96033783_1 96033782_2 96033788_1 96033790_2 96033796_2 96033843_1 96033844_1 96033846_1 96033850_1 96033947_1 96033955_1 96033958_1 96033961_1 96033961_2"/>
    </vehicle>
    <vehicle id="flow1_39" depart="293.00">
        <route edges="96033902_1 96033869_2 96033771_1 96352233_2 96352232_2 96352231_2 96552260_2 96353024_2 96353027_2 96353027_1"/>
    </vehicle>
    <vehicle id="flow2_39" depart="293.00">
        <route edges="96033779_1 96033780_1 96033783_1 96033782_2 96033832_2 96033840_2 96033842_2 96033855_2 96033831_2"/>
    </vehicle>
</routes>
