<edges>
<edge id="96033861_1" fromnode="node0" tonode="node1" priority="70" nolanes="2" speed="15"/>
<edge id="96033861_2" fromnode="node1" tonode="node0" priority="70" nolanes="2" speed="15"/>
<edge id="96033859_1" fromnode="node1" tonode="node2" priority="70" nolanes="2" speed="15"/>
<edge id="96033859_2" fromnode="node2" tonode="node1" priority="70" nolanes="2" speed="15"/>
<edge id="96033850_1" fromnode="node3" tonode="node2" priority="70" nolanes="2" speed="15"/>
<edge id="96033850_2" fromnode="node2" tonode="node3" priority="70" nolanes="2" speed="15"/>
<edge id="96033860_1" fromnode="node0" tonode="node3" priority="70" nolanes="2" speed="15"/>
<edge id="96033860_2" fromnode="node3" tonode="node0" priority="70" nolanes="2" speed="15"/>
<edge id="96033955_1" fromnode="node4" tonode="node5" priority="70" nolanes="2" speed="15"/>
<edge id="96033955_2" fromnode="node5" tonode="node4" priority="70" nolanes="2" speed="15"/>
<edge id="96140246_1" fromnode="node5" tonode="node6" priority="70" nolanes="2" speed="15"/>
<edge id="96140246_2" fromnode="node6" tonode="node5" priority="70" nolanes="2" speed="15"/>
<edge id="96140245_1" fromnode="node4" tonode="node6" priority="70" nolanes="2" speed="15"/>
<edge id="96140245_2" fromnode="node6" tonode="node4" priority="70" nolanes="2" speed="15"/>
<edge id="96140247_1" fromnode="node6" tonode="node7" priority="70" nolanes="2" speed="15"/>
<edge id="96140247_2" fromnode="node7" tonode="node6" priority="70" nolanes="2" speed="15"/>
<edge id="96033943_1" fromnode="node7" tonode="node8" priority="70" nolanes="2" speed="15"/>
<edge id="96033943_2" fromnode="node8" tonode="node7" priority="70" nolanes="2" speed="15"/>
<edge id="96033958_1" fromnode="node5" tonode="node9" priority="70" nolanes="2" speed="15"/>
<edge id="96033958_2" fromnode="node9" tonode="node5" priority="70" nolanes="2" speed="15"/>
<edge id="96033960_1" fromnode="node9" tonode="node8" priority="70" nolanes="2" speed="15"/>
<edge id="96033960_2" fromnode="node8" tonode="node9" priority="70" nolanes="2" speed="15"/>
<edge id="96033906_1" fromnode="node8" tonode="node10" priority="70" nolanes="2" speed="15"/>
<edge id="96033906_2" fromnode="node10" tonode="node8" priority="70" nolanes="2" speed="15"/>
<edge id="96033905_1" fromnode="node7" tonode="node10" priority="70" nolanes="2" speed="15"/>
<edge id="96033905_2" fromnode="node10" tonode="node7" priority="70" nolanes="2" speed="15"/>
<edge id="96033862_1" fromnode="node1" tonode="node11" priority="70" nolanes="2" speed="15"/>
<edge id="96033862_2" fromnode="node11" tonode="node1" priority="70" nolanes="2" speed="15"/>
<edge id="96033953_1" fromnode="node11" tonode="node4" priority="70" nolanes="2" speed="15"/>
<edge id="96033953_2" fromnode="node4" tonode="node11" priority="70" nolanes="2" speed="15"/>
<edge id="96033947_1" fromnode="node2" tonode="node4" priority="70" nolanes="2" speed="15"/>
<edge id="96033947_2" fromnode="node4" tonode="node2" priority="70" nolanes="2" speed="15"/>
<edge id="96033856_1" fromnode="node12" tonode="node13" priority="70" nolanes="2" speed="15"/>
<edge id="96033856_2" fromnode="node13" tonode="node12" priority="70" nolanes="2" speed="15"/>
<edge id="96033857_1" fromnode="node13" tonode="node14" priority="70" nolanes="2" speed="15"/>
<edge id="96033857_2" fromnode="node14" tonode="node13" priority="70" nolanes="2" speed="15"/>
<edge id="96033844_1" fromnode="node15" tonode="node14" priority="70" nolanes="2" speed="15"/>
<edge id="96033844_2" fromnode="node14" tonode="node15" priority="70" nolanes="2" speed="15"/>
<edge id="96033847_1" fromnode="node16" tonode="node15" priority="70" nolanes="2" speed="15"/>
<edge id="96033847_2" fromnode="node15" tonode="node16" priority="70" nolanes="2" speed="15"/>
<edge id="96033848_1" fromnode="node12" tonode="node16" priority="70" nolanes="2" speed="15"/>
<edge id="96033848_2" fromnode="node16" tonode="node12" priority="70" nolanes="2" speed="15"/>
<edge id="96033843_1" fromnode="node17" tonode="node15" priority="70" nolanes="2" speed="15"/>
<edge id="96033843_2" fromnode="node15" tonode="node17" priority="70" nolanes="2" speed="15"/>
<edge id="96033833_1" fromnode="node18" tonode="node17" priority="70" nolanes="2" speed="15"/>
<edge id="96033833_2" fromnode="node17" tonode="node18" priority="70" nolanes="2" speed="15"/>
<edge id="96033840_1" fromnode="node19" tonode="node18" priority="70" nolanes="2" speed="15"/>
<edge id="96033840_2" fromnode="node18" tonode="node19" priority="70" nolanes="2" speed="15"/>
<edge id="96033841_1" fromnode="node19" tonode="node16" priority="70" nolanes="2" speed="15"/>
<edge id="96033841_2" fromnode="node16" tonode="node19" priority="70" nolanes="2" speed="15"/>
<edge id="96033858_1" fromnode="node13" tonode="node0" priority="70" nolanes="2" speed="15"/>
<edge id="96033858_2" fromnode="node0" tonode="node13" priority="70" nolanes="2" speed="15"/>
<edge id="96033846_1" fromnode="node14" tonode="node3" priority="70" nolanes="2" speed="15"/>
<edge id="96033846_2" fromnode="node3" tonode="node14" priority="70" nolanes="2" speed="15"/>
<edge id="96033961_1" fromnode="node9" tonode="node20" priority="70" nolanes="2" speed="15"/>
<edge id="96033961_2" fromnode="node20" tonode="node9" priority="70" nolanes="2" speed="15"/>
<edge id="96033970_1" fromnode="node20" tonode="node21" priority="70" nolanes="2" speed="15"/>
<edge id="96033970_2" fromnode="node21" tonode="node20" priority="70" nolanes="2" speed="15"/>
<edge id="96033944_1" fromnode="node8" tonode="node21" priority="70" nolanes="2" speed="15"/>
<edge id="96033944_2" fromnode="node21" tonode="node8" priority="70" nolanes="2" speed="15"/>
<edge id="96033909_1" fromnode="node21" tonode="node22" priority="70" nolanes="2" speed="15"/>
<edge id="96033909_2" fromnode="node22" tonode="node21" priority="70" nolanes="2" speed="15"/>
<edge id="96033903_1" fromnode="node23" tonode="node22" priority="70" nolanes="2" speed="15"/>
<edge id="96033903_2" fromnode="node22" tonode="node23" priority="70" nolanes="2" speed="15"/>
<edge id="96033904_1" fromnode="node10" tonode="node23" priority="70" nolanes="2" speed="15"/>
<edge id="96033904_2" fromnode="node23" tonode="node10" priority="70" nolanes="2" speed="15"/>
<edge id="96033975_1" fromnode="node24" tonode="node25" priority="75" nolanes="2" speed="30"/>
<edge id="96033975_2" fromnode="node25" tonode="node24" priority="75" nolanes="2" speed="30"/>
<edge id="96033974_1" fromnode="node25" tonode="node26" priority="70" nolanes="2" speed="15"/>
<edge id="96033974_2" fromnode="node26" tonode="node25" priority="70" nolanes="2" speed="15"/>
<edge id="96033976_1" fromnode="node27" tonode="node25" priority="70" nolanes="2" speed="20"/>
<edge id="96033976_2" fromnode="node25" tonode="node27" priority="70" nolanes="2" speed="20"/>
<edge id="96033971_1" fromnode="node20" tonode="node25" priority="70" nolanes="2" speed="15"/>
<edge id="96033971_2" fromnode="node25" tonode="node20" priority="70" nolanes="2" speed="15"/>
<edge id="96124570_1" fromnode="node28" tonode="node20" priority="70" nolanes="2" speed="15"/>
<edge id="96124570_2" fromnode="node20" tonode="node28" priority="70" nolanes="2" speed="15"/>
<edge id="96033966_1" fromnode="node29" tonode="node30" priority="70" nolanes="2" speed="15"/>
<edge id="96033966_2" fromnode="node30" tonode="node29" priority="70" nolanes="2" speed="15"/>
<edge id="96033964_1" fromnode="node31" tonode="node30" priority="70" nolanes="2" speed="15"/>
<edge id="96033964_2" fromnode="node30" tonode="node31" priority="70" nolanes="2" speed="15"/>
<edge id="96033965_1" fromnode="node32" tonode="node31" priority="70" nolanes="2" speed="15"/>
<edge id="96033965_2" fromnode="node31" tonode="node32" priority="70" nolanes="2" speed="15"/>
<edge id="96124568_1" fromnode="node33" tonode="node5" priority="70" nolanes="2" speed="15"/>
<edge id="96124568_2" fromnode="node5" tonode="node33" priority="70" nolanes="2" speed="15"/>
<edge id="96033959_1" fromnode="node30" tonode="node33" priority="70" nolanes="2" speed="15"/>
<edge id="96033959_2" fromnode="node33" tonode="node30" priority="70" nolanes="2" speed="15"/>
<edge id="96034100_1" fromnode="node34" tonode="node35" priority="70" nolanes="2" speed="15"/>
<edge id="96034100_2" fromnode="node35" tonode="node34" priority="70" nolanes="2" speed="15"/>
<edge id="96033962_1" fromnode="node34" tonode="node35" priority="70" nolanes="2" speed="15"/>
<edge id="96033962_2" fromnode="node35" tonode="node34" priority="70" nolanes="2" speed="15"/>
<edge id="96033867_1" fromnode="node36" tonode="node37" priority="70" nolanes="2" speed="15"/>
<edge id="96033867_2" fromnode="node37" tonode="node36" priority="70" nolanes="2" speed="15"/>
<edge id="96033866_1" fromnode="node36" tonode="node37" priority="70" nolanes="2" speed="15"/>
<edge id="96033866_2" fromnode="node37" tonode="node36" priority="70" nolanes="2" speed="15"/>
<edge id="96034037_1" fromnode="node38" tonode="node39" priority="70" nolanes="2" speed="15"/>
<edge id="96034037_2" fromnode="node39" tonode="node38" priority="70" nolanes="2" speed="15"/>
<edge id="96033863_1" fromnode="node38" tonode="node39" priority="70" nolanes="2" speed="15"/>
<edge id="96033863_2" fromnode="node39" tonode="node38" priority="70" nolanes="2" speed="15"/>
<edge id="96033956_1" fromnode="node11" tonode="node40" priority="70" nolanes="2" speed="15"/>
<edge id="96033956_2" fromnode="node40" tonode="node11" priority="70" nolanes="2" speed="15"/>
<edge id="96033842_1" fromnode="node41" tonode="node19" priority="70" nolanes="2" speed="15"/>
<edge id="96033842_2" fromnode="node19" tonode="node41" priority="70" nolanes="2" speed="15"/>
<edge id="96033854_1" fromnode="node41" tonode="node38" priority="70" nolanes="2" speed="15"/>
<edge id="96033854_2" fromnode="node38" tonode="node41" priority="70" nolanes="2" speed="15"/>
<edge id="96033864_1" fromnode="node39" tonode="node36" priority="70" nolanes="2" speed="15"/>
<edge id="96033864_2" fromnode="node36" tonode="node39" priority="70" nolanes="2" speed="15"/>
<edge id="96033865_1" fromnode="node37" tonode="node34" priority="70" nolanes="2" speed="15"/>
<edge id="96033865_2" fromnode="node34" tonode="node37" priority="70" nolanes="2" speed="15"/>
<edge id="96033963_1" fromnode="node35" tonode="node31" priority="70" nolanes="2" speed="15"/>
<edge id="96033963_2" fromnode="node31" tonode="node35" priority="70" nolanes="2" speed="15"/>
<edge id="96033839_1" fromnode="node42" tonode="node19" priority="70" nolanes="2" speed="15"/>
<edge id="96033839_2" fromnode="node19" tonode="node42" priority="70" nolanes="2" speed="15"/>
<edge id="96033832_1" fromnode="node18" tonode="node43" priority="70" nolanes="2" speed="15"/>
<edge id="96033832_2" fromnode="node43" tonode="node18" priority="70" nolanes="2" speed="15"/>
<edge id="96033785_1" fromnode="node44" tonode="node43" priority="70" nolanes="2" speed="15"/>
<edge id="96033785_2" fromnode="node43" tonode="node44" priority="70" nolanes="2" speed="15"/>
<edge id="96033838_1" fromnode="node42" tonode="node44" priority="70" nolanes="2" speed="15"/>
<edge id="96033838_2" fromnode="node44" tonode="node42" priority="70" nolanes="2" speed="15"/>
<edge id="96033796_1" fromnode="node17" tonode="node45" priority="70" nolanes="2" speed="15"/>
<edge id="96033796_2" fromnode="node45" tonode="node17" priority="70" nolanes="2" speed="15"/>
<edge id="96033790_1" fromnode="node45" tonode="node46" priority="70" nolanes="2" speed="15"/>
<edge id="96033790_2" fromnode="node46" tonode="node45" priority="70" nolanes="2" speed="15"/>
<edge id="96033788_1" fromnode="node43" tonode="node46" priority="70" nolanes="2" speed="15"/>
<edge id="96033788_2" fromnode="node46" tonode="node43" priority="70" nolanes="2" speed="15"/>
<edge id="96033946_1" fromnode="node2" tonode="node47" priority="70" nolanes="2" speed="15"/>
<edge id="96033946_2" fromnode="node47" tonode="node2" priority="70" nolanes="2" speed="15"/>
<edge id="96033794_1" fromnode="node48" tonode="node47" priority="70" nolanes="2" speed="15"/>
<edge id="96033794_2" fromnode="node47" tonode="node48" priority="70" nolanes="2" speed="15"/>
<edge id="96033849_1" fromnode="node3" tonode="node48" priority="70" nolanes="2" speed="15"/>
<edge id="96033849_2" fromnode="node48" tonode="node3" priority="70" nolanes="2" speed="15"/>
<edge id="96033901_1" fromnode="node49" tonode="node10" priority="70" nolanes="2" speed="15"/>
<edge id="96033901_2" fromnode="node10" tonode="node49" priority="70" nolanes="2" speed="15"/>
<edge id="96033899_1" fromnode="node47" tonode="node49" priority="70" nolanes="2" speed="15"/>
<edge id="96033899_2" fromnode="node49" tonode="node47" priority="70" nolanes="2" speed="15"/>
<edge id="96033900_1" fromnode="node49" tonode="node23" priority="70" nolanes="2" speed="15"/>
<edge id="96033900_2" fromnode="node23" tonode="node49" priority="70" nolanes="2" speed="15"/>
<edge id="96033795_1" fromnode="node45" tonode="node50" priority="70" nolanes="2" speed="15"/>
<edge id="96033795_2" fromnode="node50" tonode="node45" priority="70" nolanes="2" speed="15"/>
<edge id="96033791_1" fromnode="node51" tonode="node50" priority="70" nolanes="2" speed="15"/>
<edge id="96033791_2" fromnode="node50" tonode="node51" priority="70" nolanes="2" speed="15"/>
<edge id="96033789_1" fromnode="node46" tonode="node51" priority="70" nolanes="2" speed="15"/>
<edge id="96033789_2" fromnode="node51" tonode="node46" priority="70" nolanes="2" speed="15"/>
<edge id="96033845_1" fromnode="node14" tonode="node52" priority="70" nolanes="2" speed="15"/>
<edge id="96033845_2" fromnode="node52" tonode="node14" priority="70" nolanes="2" speed="15"/>
<edge id="96033792_1" fromnode="node50" tonode="node52" priority="70" nolanes="2" speed="15"/>
<edge id="96033792_2" fromnode="node52" tonode="node50" priority="70" nolanes="2" speed="15"/>
<edge id="96033793_1" fromnode="node52" tonode="node48" priority="70" nolanes="2" speed="15"/>
<edge id="96033793_2" fromnode="node48" tonode="node52" priority="70" nolanes="2" speed="15"/>
<edge id="96033884_1" fromnode="node53" tonode="node54" priority="75" nolanes="2" speed="30"/>
<edge id="96033884_2" fromnode="node54" tonode="node53" priority="75" nolanes="2" speed="30"/>
<edge id="96033907_1" fromnode="node55" tonode="node54" priority="75" nolanes="2" speed="30"/>
<edge id="96033907_2" fromnode="node54" tonode="node55" priority="75" nolanes="2" speed="30"/>
<edge id="96033878_1" fromnode="node54" tonode="node56" priority="75" nolanes="2" speed="30"/>
<edge id="96033878_2" fromnode="node56" tonode="node54" priority="75" nolanes="2" speed="30"/>
<edge id="96033948_1" fromnode="node21" tonode="node57" priority="70" nolanes="2" speed="15"/>
<edge id="96033948_2" fromnode="node57" tonode="node21" priority="70" nolanes="2" speed="15"/>
<edge id="96033880_1" fromnode="node58" tonode="node59" priority="70" nolanes="2" speed="20"/>
<edge id="96033880_2" fromnode="node59" tonode="node58" priority="70" nolanes="2" speed="20"/>
<edge id="96033902_1" fromnode="node23" tonode="node58" priority="70" nolanes="2" speed="15"/>
<edge id="96033902_2" fromnode="node58" tonode="node23" priority="70" nolanes="2" speed="15"/>
<edge id="96033973_1" fromnode="node25" tonode="node60" priority="70" nolanes="2" speed="20"/>
<edge id="96033973_2" fromnode="node60" tonode="node25" priority="70" nolanes="2" speed="20"/>
<edge id="96033967_1" fromnode="node60" tonode="node57" priority="70" nolanes="2" speed="20"/>
<edge id="96033967_2" fromnode="node57" tonode="node60" priority="70" nolanes="2" speed="20"/>
<edge id="96033968_1" fromnode="node60" tonode="node61" priority="75" nolanes="2" speed="30"/>
<edge id="96033968_2" fromnode="node61" tonode="node60" priority="75" nolanes="2" speed="30"/>
<edge id="96033877_1" fromnode="node58" tonode="node56" priority="70" nolanes="2" speed="15"/>
<edge id="96033877_2" fromnode="node56" tonode="node58" priority="70" nolanes="2" speed="15"/>
<edge id="96353020_1" fromnode="node62" tonode="node63" priority="75" nolanes="6" speed="70"/>
<edge id="96353020_2" fromnode="node63" tonode="node62" priority="75" nolanes="6" speed="70"/>
<edge id="96033770_1" fromnode="node62" tonode="node64" priority="75" nolanes="2" speed="30"/>
<edge id="96033770_2" fromnode="node64" tonode="node62" priority="75" nolanes="2" speed="30"/>
<edge id="96140201_1" fromnode="node65" tonode="node66" priority="70" nolanes="2" speed="20"/>
<edge id="96140201_2" fromnode="node66" tonode="node65" priority="70" nolanes="2" speed="20"/>
<edge id="96140214_1" fromnode="node67" tonode="node65" priority="70" nolanes="2" speed="20"/>
<edge id="96140214_2" fromnode="node65" tonode="node67" priority="70" nolanes="2" speed="20"/>
<edge id="96140212_1" fromnode="node67" tonode="node68" priority="70" nolanes="2" speed="20"/>
<edge id="96140212_2" fromnode="node68" tonode="node67" priority="70" nolanes="2" speed="20"/>
<edge id="96033775_1" fromnode="node68" tonode="node69" priority="70" nolanes="2" speed="20"/>
<edge id="96033775_2" fromnode="node69" tonode="node68" priority="70" nolanes="2" speed="20"/>
<edge id="96033767_1" fromnode="node69" tonode="node70" priority="70" nolanes="2" speed="15"/>
<edge id="96033767_2" fromnode="node70" tonode="node69" priority="70" nolanes="2" speed="15"/>
<edge id="96033777_1" fromnode="node69" tonode="node64" priority="70" nolanes="2" speed="20"/>
<edge id="96033777_2" fromnode="node64" tonode="node69" priority="70" nolanes="2" speed="20"/>
<edge id="96352233_1" fromnode="node71" tonode="node62" priority="75" nolanes="6" speed="70"/>
<edge id="96352233_2" fromnode="node62" tonode="node71" priority="75" nolanes="6" speed="70"/>
<edge id="96033776_1" fromnode="node68" tonode="node71" priority="75" nolanes="2" speed="30"/>
<edge id="96033776_2" fromnode="node71" tonode="node68" priority="75" nolanes="2" speed="30"/>
<edge id="96352232_1" fromnode="node72" tonode="node71" priority="75" nolanes="6" speed="70"/>
<edge id="96352232_2" fromnode="node71" tonode="node72" priority="75" nolanes="6" speed="70"/>
<edge id="96140202_1" fromnode="node72" tonode="node65" priority="70" nolanes="2" speed="20"/>
<edge id="96140202_2" fromnode="node65" tonode="node72" priority="70" nolanes="2" speed="20"/>
<edge id="96033855_1" fromnode="node73" tonode="node41" priority="70" nolanes="2" speed="15"/>
<edge id="96033855_2" fromnode="node41" tonode="node73" priority="70" nolanes="2" speed="15"/>
<edge id="96033830_1" fromnode="node74" tonode="node41" priority="70" nolanes="2" speed="15"/>
<edge id="96033830_2" fromnode="node41" tonode="node74" priority="70" nolanes="2" speed="15"/>
<edge id="96033831_1" fromnode="node74" tonode="node73" priority="70" nolanes="2" speed="15"/>
<edge id="96033831_2" fromnode="node73" tonode="node74" priority="70" nolanes="2" speed="15"/>
<edge id="96033853_1" fromnode="node75" tonode="node42" priority="70" nolanes="2" speed="15"/>
<edge id="96033853_2" fromnode="node42" tonode="node75" priority="70" nolanes="2" speed="15"/>
<edge id="96033837_1" fromnode="node76" tonode="node42" priority="70" nolanes="2" speed="15"/>
<edge id="96033837_2" fromnode="node42" tonode="node76" priority="70" nolanes="2" speed="15"/>
<edge id="96033852_1" fromnode="node77" tonode="node76" priority="70" nolanes="2" speed="15"/>
<edge id="96033852_2" fromnode="node76" tonode="node77" priority="70" nolanes="2" speed="15"/>
<edge id="96033835_1" fromnode="node78" tonode="node76" priority="70" nolanes="2" speed="15"/>
<edge id="96033835_2" fromnode="node76" tonode="node78" priority="70" nolanes="2" speed="15"/>
<edge id="96033851_1" fromnode="node79" tonode="node78" priority="70" nolanes="2" speed="15"/>
<edge id="96033851_2" fromnode="node78" tonode="node79" priority="70" nolanes="2" speed="15"/>
<edge id="96033812_1" fromnode="node80" tonode="node78" priority="70" nolanes="2" speed="15"/>
<edge id="96033812_2" fromnode="node78" tonode="node80" priority="70" nolanes="2" speed="15"/>
<edge id="96033829_1" fromnode="node81" tonode="node74" priority="70" nolanes="2" speed="15"/>
<edge id="96033829_2" fromnode="node74" tonode="node81" priority="70" nolanes="2" speed="15"/>
<edge id="96033771_1" fromnode="node82" tonode="node62" priority="75" nolanes="2" speed="30"/>
<edge id="96033771_2" fromnode="node62" tonode="node82" priority="75" nolanes="2" speed="30"/>
<edge id="96033869_1" fromnode="node82" tonode="node58" priority="70" nolanes="2" speed="20"/>
<edge id="96033869_2" fromnode="node58" tonode="node82" priority="70" nolanes="2" speed="20"/>
<edge id="96033787_1" fromnode="node83" tonode="node82" priority="70" nolanes="2" speed="20"/>
<edge id="96033787_2" fromnode="node82" tonode="node83" priority="70" nolanes="2" speed="20"/>
<edge id="96033786_1" fromnode="node51" tonode="node83" priority="70" nolanes="2" speed="15"/>
<edge id="96033786_2" fromnode="node83" tonode="node51" priority="70" nolanes="2" speed="15"/>
<edge id="96033781_1" fromnode="node84" tonode="node83" priority="70" nolanes="2" speed="20"/>
<edge id="96033781_2" fromnode="node83" tonode="node84" priority="70" nolanes="2" speed="20"/>
<edge id="96033782_1" fromnode="node43" tonode="node84" priority="70" nolanes="2" speed="15"/>
<edge id="96033782_2" fromnode="node84" tonode="node43" priority="70" nolanes="2" speed="15"/>
<edge id="96033783_1" fromnode="node85" tonode="node84" priority="70" nolanes="2" speed="20"/>
<edge id="96033783_2" fromnode="node84" tonode="node85" priority="70" nolanes="2" speed="20"/>
<edge id="96033784_1" fromnode="node44" tonode="node85" priority="70" nolanes="2" speed="15"/>
<edge id="96033784_2" fromnode="node85" tonode="node44" priority="70" nolanes="2" speed="15"/>
<edge id="96033765_1" fromnode="node86" tonode="node87" priority="70" nolanes="2" speed="20"/>
<edge id="96033765_2" fromnode="node87" tonode="node86" priority="70" nolanes="2" speed="20"/>
<edge id="96033774_1" fromnode="node87" tonode="node88" priority="70" nolanes="2" speed="20"/>
<edge id="96033774_2" fromnode="node88" tonode="node87" priority="70" nolanes="2" speed="20"/>
<edge id="96033779_1" fromnode="node71" tonode="node88" priority="75" nolanes="2" speed="30"/>
<edge id="96033779_2" fromnode="node88" tonode="node71" priority="75" nolanes="2" speed="30"/>
<edge id="96352231_1" fromnode="node86" tonode="node72" priority="70" nolanes="2" speed="20"/>
<edge id="96352231_2" fromnode="node72" tonode="node86" priority="70" nolanes="2" speed="20"/>
<edge id="96033836_1" fromnode="node76" tonode="node87" priority="70" nolanes="2" speed="15"/>
<edge id="96033836_2" fromnode="node87" tonode="node76" priority="70" nolanes="2" speed="15"/>
<edge id="96552260_1" fromnode="node89" tonode="node86" priority="70" nolanes="2" speed="20"/>
<edge id="96552260_2" fromnode="node86" tonode="node89" priority="70" nolanes="2" speed="20"/>
<edge id="96033834_1" fromnode="node78" tonode="node90" priority="70" nolanes="2" speed="15"/>
<edge id="96033834_2" fromnode="node90" tonode="node78" priority="70" nolanes="2" speed="15"/>
<edge id="96033780_1" fromnode="node88" tonode="node85" priority="70" nolanes="2" speed="20"/>
<edge id="96033780_2" fromnode="node85" tonode="node88" priority="70" nolanes="2" speed="20"/>
</edges>
