<nodes>
<node id="node0" x="1421.6" y="1129.86" type="priority"/>
<node id="node1" x="1432.74" y="580" type="priority"/>
<node id="node2" x="1432.74" y="1029.64" type="priority"/>
<node id="node3" x="1421.6" y="580" type="priority"/>
<node id="node4" x="1210.02" y="1751" type="priority"/>
<node id="node5" x="1210.02" y="996.228" type="priority"/>
<node id="node6" x="1154.34" y="1051.91" type="priority"/>
<node id="node7" x="1154.34" y="580" type="priority"/>
<node id="node8" x="1276.83" y="918.274" type="priority"/>
<node id="node9" x="1332.51" y="1751" type="priority"/>
<node id="node10" x="1332.51" y="806.912" type="priority"/>
<node id="node11" x="1276.83" y="1751" type="priority"/>
<node id="node12" x="1106.78" y="1751" type="priority"/>
<node id="node13" x="1106.78" y="808.248" type="priority"/>
<node id="node14" x="942.748" y="1751" type="priority"/>
<node id="node15" x="942.748" y="806.912" type="priority"/>
<node id="node16" x="942.748" y="706.685" type="priority"/>
<node id="node17" x="1365.92" y="1751" type="priority"/>
<node id="node18" x="1365.92" y="728.958" type="priority"/>
<node id="node19" x="720.025" y="1751" type="priority"/>
<node id="node20" x="720.025" y="806.912" type="priority"/>
<node id="node21" x="1421.6" y="1751" type="priority"/>
<node id="node22" x="1421.6" y="951.683" type="priority"/>
<node id="node23" x="1421.6" y="1296.91" type="priority"/>
<node id="node24" x="1421.6" y="1218.95" type="priority"/>
<node id="node25" x="1087.52" y="580" type="priority"/>
<node id="node26" x="1087.52" y="1129.86" type="priority"/>
<node id="node27" x="1020.7" y="1207.82" type="priority"/>
<node id="node28" x="1020.7" y="580" type="priority"/>
<node id="node29" x="1232.29" y="1308.04" type="priority"/>
<node id="node30" x="1232.29" y="580" type="priority"/>
<node id="node31" x="998.429" y="1285.77" type="priority"/>
<node id="node32" x="998.429" y="580" type="priority"/>
<node id="node33" x="998.429" y="1386" type="priority"/>
<node id="node34" x="1232.29" y="1397.13" type="priority"/>
<node id="node35" x="1432.74" y="1751" type="priority"/>
<node id="node36" x="1432.74" y="628.732" type="priority"/>
<node id="node37" x="953.885" y="1751" type="priority"/>
<node id="node38" x="953.885" y="606.459" type="priority"/>
<node id="node39" x="653.208" y="1751" type="priority"/>
<node id="node40" x="653.208" y="606.459" type="priority"/>
<node id="node41" x="642.072" y="751.231" type="priority"/>
<node id="node42" x="642.072" y="1751" type="priority"/>
<node id="node43" x="1432.74" y="606.459" type="priority"/>
<node id="node44" x="1544.1" y="580" type="priority"/>
<node id="node45" x="1622" y="580" type="priority"/>
<node id="node46" x="1622" y="1751" type="priority"/>
<node id="node47" x="1488.42" y="795.776" type="priority"/>
<node id="node48" x="1521.83" y="784.639" type="priority"/>
<node id="node49" x="1488.42" y="1751" type="priority"/>
<node id="node50" x="1521.83" y="1751" type="priority"/>
<node id="node51" x="1421.6" y="806.912" type="priority"/>
<node id="node52" x="1532.97" y="962.819" type="priority"/>
<node id="node53" x="1532.97" y="1751" type="priority"/>
<node id="node54" x="1532.97" y="873.729" type="priority"/>
<node id="node55" x="1544.1" y="1118.73" type="priority"/>
<node id="node56" x="1532.97" y="580" type="priority"/>
<node id="node57" x="1532.97" y="1040.77" type="priority"/>
<node id="node58" x="1555.24" y="1296.91" type="priority"/>
<node id="node59" x="1544.1" y="1207.82" type="priority"/>
<node id="node60" x="1555.24" y="580" type="priority"/>
<node id="node61" x="1421.6" y="896.002" type="priority"/>
<node id="node62" x="1588.65" y="1397.13" type="priority"/>
<node id="node63" x="1588.65" y="580" type="priority"/>
<node id="node64" x="1232.29" y="1486.22" type="priority"/>
<node id="node65" x="708.889" y="580" type="priority"/>
<node id="node66" x="708.889" y="1363.72" type="priority"/>
<node id="node67" x="720.025" y="1452.81" type="priority"/>
<node id="node68" x="720.025" y="580" type="priority"/>
<node id="node69" x="887.068" y="580" type="priority"/>
<node id="node70" x="887.068" y="1285.77" type="priority"/>
<node id="node71" x="720.025" y="1285.77" type="priority"/>
<node id="node72" x="708.889" y="1751" type="priority"/>
<node id="node73" x="708.889" y="929.411" type="priority"/>
<node id="node74" x="720.025" y="1018.5" type="priority"/>
<node id="node75" x="708.889" y="862.593" type="priority"/>
<node id="node76" x="720.025" y="1218.95" type="priority"/>
<node id="node77" x="708.889" y="1263.5" type="priority"/>
<node id="node78" x="720.025" y="1107.59" type="priority"/>
<node id="node79" x="530.71" y="617.595" type="priority"/>
<node id="node80" x="510" y="580" type="priority"/>
<node id="node81" x="642.072" y="580" type="priority"/>
<node id="node82" x="510" y="1751" type="priority"/>
<node id="node83" x="953.885" y="580" type="priority"/>
<node id="node84" x="552.983" y="728.958" type="priority"/>
<node id="node85" x="630.936" y="580" type="priority"/>
<node id="node86" x="552.983" y="1751" type="priority"/>
<node id="node87" x="1343.65" y="1751" type="priority"/>
<node id="node88" x="1343.65" y="595.323" type="priority"/>
<node id="node89" x="1254.56" y="580" type="priority"/>
<node id="node90" x="530.71" y="1118.73" type="priority"/>
<node id="node91" x="683.499" y="1741.36" type="priority"/>
<node id="node92" x="683.387" y="1735.34" type="priority"/>
<node id="node93" x="683.499" y="580" type="priority"/>
<node id="node94" x="683.387" y="580" type="priority"/>
<node id="node95" x="608.663" y="580" type="priority"/>
<node id="node96" x="608.663" y="1497.36" type="priority"/>
<node id="node97" x="564.119" y="580" type="priority"/>
<node id="node98" x="564.119" y="1397.13" type="priority"/>
<node id="node99" x="619.8" y="1452.81" type="priority"/>
<node id="node100" x="530.71" y="580" type="priority"/>
<node id="node101" x="619.8" y="580" type="priority"/>
<node id="node102" x="708.889" y="1742.36" type="priority"/>
<node id="node103" x="1599.78" y="1742.36" type="priority"/>
<node id="node104" x="1599.78" y="580" type="priority"/>
<node id="node105" x="1488.42" y="1497.36" type="priority"/>
<node id="node106" x="1488.42" y="580" type="priority"/>
<node id="node107" x="1210.02" y="1597.59" type="priority"/>
<node id="node108" x="1210.02" y="580" type="priority"/>
<node id="node109" x="1466.15" y="1619.86" type="priority"/>
<node id="node110" x="1466.15" y="580" type="priority"/>
<node id="node111" x="1232.29" y="1697.81" type="priority"/>
<node id="node112" x="1477.28" y="1720.09" type="priority"/>
<node id="node113" x="1477.28" y="580" type="priority"/>
<node id="node114" x="1577.51" y="580" type="priority"/>
<node id="node115" x="552.983" y="1007.36" type="priority"/>
<node id="node116" x="552.983" y="580" type="priority"/>
<node id="node117" x="630.936" y="1263.5" type="priority"/>
<node id="node118" x="675.48" y="1386" type="priority"/>
<node id="node119" x="675.48" y="580" type="priority"/>
<node id="node120" x="697.753" y="1452.81" type="priority"/>
<node id="node121" x="697.753" y="580" type="priority"/>
<node id="node122" x="742.297" y="1731.22" type="priority"/>
<node id="node123" x="697.753" y="1586.45" type="priority"/>
<node id="node124" x="742.297" y="580" type="priority"/>
<node id="node125" x="686.617" y="580" type="priority"/>
<node id="node126" x="686.617" y="1475.09" type="priority"/>
<node id="node127" x="1120.93" y="580" type="priority"/>
<node id="node128" x="976.157" y="580" type="priority"/>
<node id="node129" x="976.157" y="1675.54" type="priority"/>
</nodes>
